
     RDKit          3D

 30 31  0  0  0  0  0  0  0  0999 V2000
   -1.9417   11.7761  -27.7505 C   0  0  0  0  0  0  0  0  0  0  0  0
   -2.5557   17.4715  -25.4718 C   0  0  0  0  0  0  0  0  0  0  0  0
   -2.4271   10.9257  -26.7737 C   0  0  0  0  0  0  0  0  0  0  0  0
    2.0077   17.4968  -28.7715 C   0  0  0  0  0  0  0  0  0  0  0  0
    0.8338   19.2404  -27.0897 C   0  0  0  0  0  0  0  0  0  0  0  0
   -1.5782   11.7504  -29.1155 C   0  0  0  0  0  0  0  0  0  0  0  0
    3.0163   18.7233  -30.5302 C   0  0  0  0  0  0  0  0  0  0  0  0
   -1.0741   18.6414  -22.2199 C   0  0  0  0  0  0  0  0  0  0  0  0
   -1.2451   17.4067  -26.4160 C   0  0  0  0  0  0  0  0  0  0  0  0
   -3.4690   19.2424  -24.1000 C   0  0  0  0  0  0  0  0  0  0  0  0
   -1.1313   18.1500  -23.5995 C   0  0  0  0  0  0  0  0  0  0  0  0
   -2.2786    9.4135  -29.4447 C   0  0  0  0  0  0  0  0  0  0  0  0
   -2.1785   16.2184  -26.6509 C   0  0  0  0  0  0  0  0  0  0  0  0
   -0.6290   19.7744  -21.8904 C   0  0  0  0  0  0  0  0  0  0  0  0
   -1.4194   17.7352  -21.2568 O   0  0  0  0  0  0  0  0  0  0  0  0
   -1.6889    9.3087  -28.2844 C   0  0  0  0  0  0  0  0  0  0  0  0
   -2.0445    9.5700  -26.8798 C   0  0  0  0  0  0  0  0  0  0  0  0
   -0.1376   15.7408  -27.8648 O   0  0  0  0  0  0  0  0  0  0  0  0
   -1.7405   15.5471  -27.7438 C   0  0  0  0  0  0  0  0  0  0  0  0
   -2.5374   17.9467  -24.0513 C   0  0  0  0  0  0  0  0  0  0  0  0
   -0.1845   11.7958  -31.0444 O   0  0  0  0  0  0  0  0  0  0  0  0
   -0.9760   19.4370  -26.1117 C   0  0  0  0  0  0  0  0  0  0  0  0
    3.2107   17.5098  -29.5095 C   0  0  0  0  0  0  0  0  0  0  0  0
   -1.8953   14.1207  -27.9542 C   0  0  0  0  0  0  0  0  0  0  0  0
   -0.5130   18.5701  -26.6388 C   0  0  0  0  0  0  0  0  0  0  0  0
    1.3377   18.8788  -28.4865 C   0  0  0  0  0  0  0  0  0  0  0  0
   -1.3284   12.0781  -30.2789 C   0  0  0  0  0  0  0  0  0  0  0  0
   -2.5084    8.6682  -26.0204 C   0  0  0  0  0  0  0  0  0  0  0  0
    3.5429   16.2856  -30.3175 C   0  0  0  0  0  0  0  0  0  0  0  0
   -2.0719   12.9219  -27.9705 C   0  0  0  0  0  0  0  0  0  0  0  0
  1  3  1  0
  1  6  1  0
  1 30  2  0
  2  9  1  0
  2 13  1  0
  2 20  1  0
  3 17  2  3
  4 23  1  0
  4 26  1  0
  5 25  1  0
  5 26  1  0
  6 27  2  3
  6 30  1  0
  7 23  1  0
  8 11  1  0
  8 14  2  0
  8 15  1  0
  9 13  1  0
  9 25  2  3
 10 20  1  0
 11 20  1  0
 12 16  1  0
 13 19  1  0
 16 17  1  0
 17 28  1  0
 18 19  1  0
 19 24  1  0
 21 27  1  0
 22 25  1  0
 23 29  1  0
 24 30  1  0
M  END
$$$$
