
     RDKit          3D

 18 19  0  0  0  0  0  0  0  0999 V2000
  -21.6996   35.9637    6.2332 C   0  0  0  0  0  0  0  0  0  0  0  0
  -23.2980   36.2808    8.0238 C   0  0  0  0  0  0  0  0  0  0  0  0
  -16.0212   31.7809    3.5161 O   0  0  0  0  0  0  0  0  0  0  0  0
  -20.4001   35.9486    5.8809 N   0  0  0  0  0  0  0  0  0  0  0  0
  -15.1241   32.8251    3.0396 P   0  0  0  0  0  0  0  0  0  0  0  0
  -19.1168   36.1017    5.8804 C   0  0  0  0  0  0  0  0  0  0  0  0
  -20.7040   35.4649    5.4930 C   0  0  0  0  0  0  0  0  0  0  0  0
  -18.0531   34.6905    5.4551 C   0  0  0  0  0  0  0  0  0  0  0  0
  -16.1731   34.1344    2.4879 C   0  0  0  0  0  0  0  0  0  0  0  0
  -22.7435   36.2014    5.4027 C   0  0  0  0  0  0  0  0  0  0  0  0
  -24.2613   36.5394    7.1449 C   0  0  0  0  0  0  0  0  0  0  0  0
  -22.0261   35.9475    7.5797 C   0  0  0  0  0  0  0  0  0  0  0  0
  -17.3754   35.1509    4.6571 C   0  0  0  0  0  0  0  0  0  0  0  0
  -24.0763   36.4995    5.8115 C   0  0  0  0  0  0  0  0  0  0  0  0
  -16.0041   35.3625    3.4039 C   0  0  0  0  0  0  0  0  0  0  0  0
  -17.6397   35.6854    3.7437 C   0  0  0  0  0  0  0  0  0  0  0  0
  -14.3542   33.8354    3.7469 O   0  0  0  0  0  0  0  0  0  0  0  0
  -14.1253   32.4627    2.0246 O   0  0  0  0  0  0  0  0  0  0  0  0
  1  4  1  0
  1 10  1  0
  1 12  2  0
  2 11  2  0
  2 12  1  0
  3  5  1  0
  4  6  1  0
  4  7  1  0
  5  9  1  0
  5 17  1  0
  5 18  2  0
  6  8  1  0
  8 13  1  0
  9 15  1  0
 10 14  2  0
 11 14  1  0
 13 15  1  0
 13 16  1  0
 15 16  1  0
M  END
$$$$
