
     RDKit          3D

 12 12  0  0  0  0  0  0  0  0999 V2000
  -14.2787   32.4052    2.1383 N   0  0  0  0  0  0  0  0  0  0  0  0
  -24.1510   37.1117    7.2702 C   0  0  0  0  0  0  0  0  0  0  0  0
  -20.9318   35.5010    6.1149 C   0  0  0  0  0  0  0  0  0  0  0  0
  -16.8596   34.8246    3.4177 C   0  0  0  0  0  0  0  0  0  0  0  0
  -21.4403   35.1654    5.5094 O   0  0  0  0  0  0  0  0  0  0  0  0
  -23.2368   36.4482    6.2488 C   0  0  0  0  0  0  0  0  0  0  0  0
  -19.4212   35.6796    6.2653 C   0  0  0  0  0  0  0  0  0  0  0  0
  -18.7176   34.8076    5.2222 C   0  0  0  0  0  0  0  0  0  0  0  0
  -15.4746   34.2271    3.4190 C   0  0  0  0  0  0  0  0  0  0  0  0
  -15.1225   33.3015    2.5157 C   0  0  0  0  0  0  0  0  0  0  0  0
  -17.3391   35.3333    4.8106 C   0  0  0  0  0  0  0  0  0  0  0  0
  -22.1158   35.5765    6.7389 C   0  0  0  0  0  0  0  0  0  0  0  0
  1 10  1  0
  2  6  1  0
  3  5  2  0
  3  7  1  0
  3 12  1  0
  4  9  1  0
  4 11  1  0
  5 12  1  0
  6 12  1  0
  7  8  1  0
  8 11  1  0
  9 10  2  3
M  END
$$$$
