
     RDKit          3D

 23 26  0  0  0  0  0  0  0  0999 V2000
  -19.3795   36.7598    6.1270 C   0  0  0  0  0  0  0  0  0  0  0  0
  -21.0705   34.9423    6.4000 N   0  0  0  0  0  0  0  0  0  0  0  0
  -14.1626   33.7548    3.1405 C   0  0  0  0  0  0  0  0  0  0  0  0
  -24.1482   37.4350    7.1416 C   0  0  0  0  0  0  0  0  0  0  0  0
  -15.3714   31.5266    3.0122 O   0  0  0  0  0  0  0  0  0  0  0  0
  -21.9648   37.0329    6.4111 C   0  0  0  0  0  0  0  0  0  0  0  0
  -16.2120   33.1425    4.6231 C   0  0  0  0  0  0  0  0  0  0  0  0
  -15.9180   34.5829    1.8731 O   0  0  0  0  0  0  0  0  0  0  0  0
  -17.6408   35.7924    4.7536 C   0  0  0  0  0  0  0  0  0  0  0  0
  -18.1489   36.7930    5.4518 C   0  0  0  0  0  0  0  0  0  0  0  0
  -15.6880   35.7900    3.7688 C   0  0  0  0  0  0  0  0  0  0  0  0
  -17.4533   33.5049    3.8351 C   0  0  0  0  0  0  0  0  0  0  0  0
  -19.7571   37.7573    6.7908 O   0  0  0  0  0  0  0  0  0  0  0  0
  -19.3463   34.4115    5.1241 C   0  0  0  0  0  0  0  0  0  0  0  0
  -14.8267   35.0573    2.6302 C   0  0  0  0  0  0  0  0  0  0  0  0
  -15.5258   32.8407    3.2750 C   0  0  0  0  0  0  0  0  0  0  0  0
  -22.1115   35.6862    6.7610 C   0  0  0  0  0  0  0  0  0  0  0  0
  -23.2774   35.2586    7.3177 C   0  0  0  0  0  0  0  0  0  0  0  0
  -18.1778   34.6724    4.5842 N   0  0  0  0  0  0  0  0  0  0  0  0
  -22.9987   37.8813    6.6148 C   0  0  0  0  0  0  0  0  0  0  0  0
  -16.6948   33.5387    2.4418 C   0  0  0  0  0  0  0  0  0  0  0  0
  -24.2642   36.3145    7.3513 C   0  0  0  0  0  0  0  0  0  0  0  0
  -19.9899   35.3631    5.9098 C   0  0  0  0  0  0  0  0  0  0  0  0
  1 10  1  0
  1 13  2  0
  1 23  1  0
  2 17  1  0
  2 23  1  0
  3 15  1  0
  3 16  1  0
  4 20  2  0
  4 22  1  0
  5 16  1  0
  6 17  2  0
  6 20  1  0
  7 12  1  0
  7 16  1  0
  8 15  1  0
  8 21  1  0
  9 10  2  0
  9 19  1  0
 11 15  1  0
 12 19  1  0
 12 21  1  0
 14 19  1  0
 14 23  2  0
 16 21  1  0
 17 18  1  0
 18 22  2  0
M  END
$$$$
