
     RDKit          3D

 23 25  0  0  0  0  0  0  0  0999 V2000
   -0.2444    3.2447    0.7802 C   0  0  0  0  0  0  0  0  0  0  0  0
   -3.5912    0.7125    0.9091 C   0  0  0  0  0  0  0  0  0  0  0  0
    3.5713   -1.0630   -1.3370 C   0  0  0  0  0  0  0  0  0  0  0  0
    1.0941   -1.2882    0.5051 C   0  0  0  0  0  0  0  0  0  0  0  0
    4.9742   -1.1624    0.7456 C   0  0  0  0  0  0  0  0  0  0  0  0
   -5.7125   -0.8085   -0.0267 C   0  0  0  0  0  0  0  0  0  0  0  0
    0.5257    3.0680   -1.4004 C   0  0  0  0  0  0  0  0  0  0  0  0
   -5.8179   -0.1200    1.1406 N   0  0  0  0  0  0  0  0  0  0  0  0
   -0.4706   -3.1123    0.1365 C   0  0  0  0  0  0  0  0  0  0  0  0
   -2.1587    0.0716   -1.0704 C   0  0  0  0  0  0  0  0  0  0  0  0
    0.4165    1.0397   -0.0339 N   0  0  0  0  0  0  0  0  0  0  0  0
    2.4757   -0.8554    0.9609 C   0  0  0  0  0  0  0  0  0  0  0  0
    3.6106   -1.5042    0.1329 C   0  0  0  0  0  0  0  0  0  0  0  0
    0.1374   -0.3710   -0.0067 C   0  0  0  0  0  0  0  0  0  0  0  0
    0.2483    1.8494    1.1737 C   0  0  0  0  0  0  0  0  0  0  0  0
   -4.7916    0.6322    1.6188 C   0  0  0  0  0  0  0  0  0  0  0  0
    1.0642    1.6470   -1.1971 C   0  0  0  0  0  0  0  0  0  0  0  0
   -1.1158   -0.8494   -0.4705 C   0  0  0  0  0  0  0  0  0  0  0  0
   -3.4537    0.0154   -0.2999 C   0  0  0  0  0  0  0  0  0  0  0  0
   -4.5296   -0.7549   -0.7679 C   0  0  0  0  0  0  0  0  0  0  0  0
    0.7565   -2.6488    0.6002 C   0  0  0  0  0  0  0  0  0  0  0  0
    0.6033    3.8158   -0.2000 O   0  0  0  0  0  0  0  0  0  0  0  0
   -1.3913   -2.2255   -0.4122 C   0  0  0  0  0  0  0  0  0  0  0  0
  1 15  1  0
  1 22  1  0
  2 16  1  0
  2 19  2  0
  3 13  1  0
  4 12  1  0
  4 14  1  0
  4 21  2  0
  5 13  1  0
  6  8  1  0
  6 20  2  0
  7 17  1  0
  7 22  1  0
  8 16  2  0
  9 21  1  0
  9 23  2  0
 10 18  1  0
 10 19  1  0
 11 14  1  0
 11 15  1  0
 11 17  1  0
 12 13  1  0
 14 18  2  0
 18 23  1  0
 19 20  1  0
M  END
