
     RDKit          3D

 18 19  0  0  0  0  0  0  0  0999 V2000
    3.2832    0.4885   -0.6633 C   0  0  0  0  0  0  0  0  0  0  0  0
   -2.3345   -0.8411   -0.2929 C   0  0  0  0  0  0  0  0  0  0  0  0
    3.1919    0.0762    1.7251 C   0  0  0  0  0  0  0  0  0  0  0  0
   -0.8943   -1.2358   -0.5391 C   0  0  0  0  0  0  0  0  0  0  0  0
    4.4192   -0.3215   -0.7573 C   0  0  0  0  0  0  0  0  0  0  0  0
   -3.2277   -0.7086   -1.3709 C   0  0  0  0  0  0  0  0  0  0  0  0
   -4.1387   -0.2772    1.2378 C   0  0  0  0  0  0  0  0  0  0  0  0
    4.9421   -0.9305    0.3867 C   0  0  0  0  0  0  0  0  0  0  0  0
   -0.1288    0.7443   -1.7233 N   0  0  0  0  0  0  0  0  0  0  0  0
    4.3282   -0.7328    1.6266 C   0  0  0  0  0  0  0  0  0  0  0  0
    0.0536   -0.0959   -0.5918 N   0  0  0  0  0  0  0  0  0  0  0  0
    0.1554    0.6758    0.6637 C   0  0  0  0  0  0  0  0  0  0  0  0
   -2.8053   -0.6344    1.0155 C   0  0  0  0  0  0  0  0  0  0  0  0
   -4.5602   -0.3511   -1.1441 C   0  0  0  0  0  0  0  0  0  0  0  0
   -1.2777    1.4555   -1.5915 O   0  0  0  0  0  0  0  0  0  0  0  0
    1.4209    1.5428    0.6819 C   0  0  0  0  0  0  0  0  0  0  0  0
   -5.0148   -0.1332    0.1590 C   0  0  0  0  0  0  0  0  0  0  0  0
    2.6660    0.7000    0.5812 C   0  0  0  0  0  0  0  0  0  0  0  0
  1  5  1  0
  1 18  2  0
  2  4  1  0
  2  6  1  0
  2 13  2  0
  3 10  2  0
  3 18  1  0
  4 11  1  0
  5  8  2  0
  6 14  2  0
  7 13  1  0
  7 17  2  0
  8 10  1  0
  9 11  1  0
  9 15  1  0
 11 12  1  0
 12 16  1  0
 14 17  1  0
 16 18  1  0
M  END
