
     RDKit          3D

 20 22  0  0  0  0  0  0  0  0999 V2000
    0.0608   -1.4589   -1.2084 C   0  0  0  0  0  0  0  0  0  0  0  0
   -1.0891    0.7525   -1.1668 C   0  0  0  0  0  0  0  0  0  0  0  0
   -0.1006   -0.1198   -1.8977 C   0  0  0  0  0  0  0  0  0  0  0  0
    0.1988   -3.9652    0.0640 C   0  0  0  0  0  0  0  0  0  0  0  0
    2.9580    1.2711    0.9261 N   0  0  0  0  0  0  0  0  0  0  0  0
   -0.6744    1.9536   -0.5653 C   0  0  0  0  0  0  0  0  0  0  0  0
   -1.5919    2.7480    0.1285 C   0  0  0  0  0  0  0  0  0  0  0  0
    0.7518   -2.8416    0.6797 C   0  0  0  0  0  0  0  0  0  0  0  0
    0.6980   -1.5857    0.0536 C   0  0  0  0  0  0  0  0  0  0  0  0
   -0.4962   -2.6030   -1.8091 C   0  0  0  0  0  0  0  0  0  0  0  0
    2.3806    1.7385    2.0646 C   0  0  0  0  0  0  0  0  0  0  0  0
   -0.4221   -3.8464   -1.1786 C   0  0  0  0  0  0  0  0  0  0  0  0
   -3.3535    1.1696   -0.3856 C   0  0  0  0  0  0  0  0  0  0  0  0
    2.4393    0.2034    0.2662 C   0  0  0  0  0  0  0  0  0  0  0  0
    1.2890   -0.4271    0.7524 C   0  0  0  0  0  0  0  0  0  0  0  0
   -2.9301    2.3560    0.2193 C   0  0  0  0  0  0  0  0  0  0  0  0
   -2.4388    0.3706   -1.0782 C   0  0  0  0  0  0  0  0  0  0  0  0
    1.2718    1.1298    2.5625 N   0  0  0  0  0  0  0  0  0  0  0  0
    0.7215    0.0582    1.9356 C   0  0  0  0  0  0  0  0  0  0  0  0
    2.9393    2.8642    2.7375 N   0  0  0  0  0  0  0  0  0  0  0  0
  1  3  1  0
  1  9  1  0
  1 10  2  0
  2  3  1  0
  2  6  2  0
  2 17  1  0
  4  8  1  0
  4 12  2  0
  5 11  1  0
  5 14  2  0
  6  7  1  0
  7 16  2  0
  8  9  2  0
  9 15  1  0
 10 12  1  0
 11 18  2  0
 11 20  1  0
 13 16  1  0
 13 17  2  0
 14 15  1  0
 15 19  2  0
 18 19  1  0
M  END
