
     RDKit          3D

 31 33  0  0  0  0  0  0  0  0999 V2000
   10.1126   17.5401   11.2048 O   0  0  0  0  0  0  0  0  0  0  0  0
   11.9344   18.8054   17.5456 O   0  0  0  0  0  0  0  0  0  0  0  0
   16.0336   20.3415   16.8554 O   0  0  0  0  0  0  0  0  0  0  0  0
   11.8341   20.0213   15.3640 O   0  0  0  0  0  0  0  0  0  0  0  0
   10.7974   13.4154   15.7045 N   0  0  0  0  0  0  0  0  0  0  0  0
    8.7485   11.1512   13.0855 C   0  0  0  0  0  0  0  0  0  0  0  0
   13.0968   21.0740   17.3940 O   0  0  0  0  0  0  0  0  0  0  0  0
   10.0054   12.5525   14.9735 C   0  0  0  0  0  0  0  0  0  0  0  0
   16.3092   18.3863   15.4263 O   0  0  0  0  0  0  0  0  0  0  0  0
   11.4316   14.1329   14.8000 C   0  0  0  0  0  0  0  0  0  0  0  0
   10.7270   15.1511   10.1041 O   0  0  0  0  0  0  0  0  0  0  0  0
   14.0328   18.9876   16.1966 O   0  0  0  0  0  0  0  0  0  0  0  0
    9.5757   12.1041   12.6098 N   0  0  0  0  0  0  0  0  0  0  0  0
   11.0736   13.7885   13.5224 N   0  0  0  0  0  0  0  0  0  0  0  0
   11.5498   14.3728   12.2799 C   0  0  2  0  0  0  0  0  0  0  0  0
   10.1746   12.7615   13.6147 C   0  0  0  0  0  0  0  0  0  0  0  0
   15.3437   19.6540   15.5858 P   0  0  0  0  0  0  0  0  0  0  0  0
   12.6136   15.3146   12.5949 O   0  0  0  0  0  0  0  0  0  0  0  0
   15.1682   20.7599   14.0321 S   0  0  0  0  0  0  0  0  0  0  0  0
   12.7778   17.7070   13.0344 C   0  0  0  0  0  0  0  0  0  0  0  0
    8.8341   11.2110   16.6692 N   0  0  0  0  0  0  0  0  0  0  0  0
    8.4899   10.8318   14.3727 N   0  0  0  0  0  0  0  0  0  0  0  0
   12.1381   17.7223   14.3088 O   0  0  0  0  0  0  0  0  0  0  0  0
   10.3275   19.3175   13.3470 O   0  0  0  0  0  0  0  0  0  0  0  0
   12.2007   16.6181   12.1289 C   0  0  2  0  0  0  0  0  0  0  0  0
   11.0628   18.8846   14.5770 P   0  0  2  0  0  0  0  0  0  0  0  0
   10.6780   16.5576   12.0600 C   0  0  2  0  0  0  0  0  0  0  0  0
   12.7634   19.8363   16.6289 P   0  0  1  0  0  0  0  0  0  0  0  0
   10.4701   15.1545   11.5186 C   0  0  1  0  0  0  0  0  0  0  0  0
   10.1157   18.2161   15.6777 O   0  0  0  0  0  0  0  0  0  0  0  0
    9.1067   11.5391   15.3467 C   0  0  0  0  0  0  0  0  0  0  0  0
 27  1  1  6
 28  2  1  1
  3 17  1  0
  4 26  1  0
  4 28  1  0
  5  8  1  0
  5 10  2  0
  6 13  1  0
  6 22  2  0
  7 28  2  0
  8 16  1  0
  8 31  2  0
  9 17  1  0
 10 14  1  0
 29 11  1  6
 12 17  1  0
 12 28  1  0
 13 16  2  0
 15 14  1  1
 14 16  1  0
 15 18  1  0
 15 29  1  0
 17 19  2  0
 18 25  1  0
 20 23  1  0
 25 20  1  1
 21 31  1  0
 22 31  1  0
 23 26  1  0
 24 26  2  0
 25 27  1  0
 26 30  1  1
 27 29  1  0
M  END
$$$$
