
     RDKit          3D

 31 33  0  0  0  0  0  0  0  0999 V2000
    8.1188   13.8240   14.7855 C   0  0  0  0  0  0  0  0  0  0  0  0
   12.9638   21.3078   12.0298 O   0  0  0  0  0  0  0  0  0  0  0  0
   12.3158   15.3004   14.1726 O   0  0  0  0  0  0  0  0  0  0  0  0
    6.1706   13.8812   13.4375 N   0  0  0  0  0  0  0  0  0  0  0  0
    5.9906   12.8633   15.5516 N   0  0  0  0  0  0  0  0  0  0  0  0
   11.3697   16.9505   17.1031 O   0  0  0  0  0  0  0  0  0  0  0  0
    6.7582   13.5260   14.6035 C   0  0  0  0  0  0  0  0  0  0  0  0
   12.8027   15.2536   11.8470 C   0  0  2  0  0  0  0  0  0  0  0  0
   10.0411   14.6598   14.1716 N   0  0  0  0  0  0  0  0  0  0  0  0
   13.1734   19.7458   12.2887 P   0  0  0  0  0  0  0  0  0  0  0  0
   14.5816   15.9427   13.5550 C   0  0  0  0  0  0  0  0  0  0  0  0
   13.8489   19.6806   13.7209 O   0  0  0  0  0  0  0  0  0  0  0  0
   11.3819   13.3435   11.9751 O   0  0  0  0  0  0  0  0  0  0  0  0
   15.2690   18.4214   15.4123 O   0  0  0  0  0  0  0  0  0  0  0  0
   11.9390   18.9390   12.0716 O   0  0  0  0  0  0  0  0  0  0  0  0
   13.3860   15.0413   13.2446 C   0  0  1  0  0  0  0  0  0  0  0  0
    8.7520   14.4886   13.7483 C   0  0  0  0  0  0  0  0  0  0  0  0
   10.1454   14.0845   15.4100 C   0  0  0  0  0  0  0  0  0  0  0  0
   14.2510   17.3037   13.3147 O   0  0  0  0  0  0  0  0  0  0  0  0
   12.8490   17.3183   16.6140 P   0  0  0  0  0  0  0  0  0  0  0  0
   14.3553   19.4192   11.2672 O   0  0  0  0  0  0  0  0  0  0  0  0
   11.3700   14.7836   12.0351 C   0  0  1  0  0  0  0  0  0  0  0  0
   13.7254   16.1275   16.7694 O   0  0  0  0  0  0  0  0  0  0  0  0
   13.4914   14.5031   10.8551 O   0  0  0  0  0  0  0  0  0  0  0  0
   12.6105   18.0708   15.2225 N   0  0  0  0  0  0  0  0  0  0  0  0
    8.2191   14.8667   12.5750 N   0  0  0  0  0  0  0  0  0  0  0  0
   14.0513   18.3251   14.5498 P   0  0  2  0  0  0  0  0  0  0  0  0
   11.0737   15.3494   13.4307 C   0  0  2  0  0  0  0  0  0  0  0  0
    9.0026   13.5665   15.8132 N   0  0  0  0  0  0  0  0  0  0  0  0
   13.1728   18.4489   17.6909 O   0  0  0  0  0  0  0  0  0  0  0  0
    6.9137   14.5281   12.5137 C   0  0  0  0  0  0  0  0  0  0  0  0
  1  7  2  0
  1 17  1  0
  1 29  1  0
  2 10  1  0
  3 16  1  0
  3 28  1  0
  4  7  1  0
  4 31  2  0
  5  7  1  0
  6 20  1  0
  8 16  1  0
  8 22  1  0
  8 24  1  6
  9 17  1  0
  9 18  1  0
 28  9  1  1
 10 12  1  0
 10 15  2  0
 10 21  1  0
 16 11  1  1
 11 19  1  0
 12 27  1  0
 22 13  1  1
 14 27  2  0
 17 26  2  0
 18 29  2  0
 19 27  1  0
 20 23  2  0
 20 25  1  0
 20 30  1  0
 22 28  1  0
 27 25  1  1
 26 31  1  0
M  END
$$$$
