
     RDKit          3D

 22 24  0  0  0  0  0  0  0  0999 V2000
    8.3153   -4.0095  -19.6780 C   0  0  0  0  0  0  0  0  0  0  0  0
   11.9647   -5.8479  -22.2897 C   0  0  0  0  0  0  0  0  0  0  0  0
   11.7338   -1.7511  -20.8848 C   0  0  0  0  0  0  0  0  0  0  0  0
   12.5579   -3.1819  -17.0835 C   0  0  0  0  0  0  0  0  0  0  0  0
   12.7752   -6.3084  -23.2631 O   0  0  0  0  0  0  0  0  0  0  0  0
    9.9637   -6.0872  -21.1903 C   0  0  0  0  0  0  0  0  0  0  0  0
   12.6124   -0.5960  -22.6593 C   0  0  0  0  0  0  0  0  0  0  0  0
    9.4261   -4.8023  -19.2726 O   0  0  0  0  0  0  0  0  0  0  0  0
   12.7922   -1.1906  -21.4602 C   0  0  0  0  0  0  0  0  0  0  0  0
   10.7873   -6.4505  -22.1945 C   0  0  0  0  0  0  0  0  0  0  0  0
   11.9831   -2.2956  -19.5793 C   0  0  0  0  0  0  0  0  0  0  0  0
   11.4661   -0.4831  -23.2903 C   0  0  0  0  0  0  0  0  0  0  0  0
   12.8548   -5.4476  -24.3526 C   0  0  0  0  0  0  0  0  0  0  0  0
   10.4040   -1.0220  -22.6812 C   0  0  0  0  0  0  0  0  0  0  0  0
   10.5502   -1.6451  -21.4817 C   0  0  0  0  0  0  0  0  0  0  0  0
   11.4575   -4.5579  -20.3352 C   0  0  0  0  0  0  0  0  0  0  0  0
   12.6654   -1.8850  -17.4615 C   0  0  0  0  0  0  0  0  0  0  0  0
   10.2586   -5.1406  -20.2656 C   0  0  0  0  0  0  0  0  0  0  0  0
   11.8393   -3.6493  -19.3368 C   0  0  0  0  0  0  0  0  0  0  0  0
   12.4079   -1.4234  -18.6485 N   0  0  0  0  0  0  0  0  0  0  0  0
   12.1400   -4.0536  -18.0506 C   0  0  0  0  0  0  0  0  0  0  0  0
   12.3217   -4.9140  -21.3531 C   0  0  0  0  0  0  0  0  0  0  0  0
  1  8  1  0
  2  5  1  0
  2 10  1  0
  2 22  2  0
  3  9  2  0
  3 11  1  0
  3 15  1  0
  4 17  2  0
  4 21  1  0
  5 13  1  0
  6 10  2  0
  6 18  1  0
  7  9  1  0
  7 12  2  0
  8 18  1  0
 11 19  1  0
 11 20  2  0
 12 14  1  0
 14 15  2  0
 16 18  2  0
 16 19  1  0
 16 22  1  0
 17 20  1  0
 19 21  2  0
M  END
