
     RDKit          3D

 32 34  0  0  0  0  0  0  0  0999 V2000
   38.3913   47.6335   42.4288 C   0  0  0  0  0  0  0  0  0  0  0  0
   35.2211   55.7153   45.2960 C   0  0  0  0  0  0  0  0  0  0  0  0
   39.3287   49.4473   40.9621 C   0  0  0  0  0  0  0  0  0  0  0  0
   36.5132   52.1893   42.7019 C   0  0  0  0  0  0  0  0  0  0  0  0
   31.8609   59.5146   45.3444 C   0  0  0  0  0  0  0  0  0  0  0  0
   37.6591   47.1965   43.6586 C   0  0  0  0  0  0  0  0  0  0  0  0
   37.1733   51.1196   42.1109 C   0  0  0  0  0  0  0  0  0  0  0  0
   36.0585   54.7222   44.4629 C   0  0  0  0  0  0  0  0  0  0  0  0
   37.8814   50.1501   42.8961 C   0  0  0  0  0  0  0  0  0  0  0  0
   38.1566   45.9860   37.3535 C   0  0  0  0  0  0  0  0  0  0  0  0
   33.8397   53.7332   46.0395 C   0  0  0  0  0  0  0  0  0  0  0  0
   35.8900   53.3177   44.8880 N   0  0  0  0  0  0  0  0  0  0  0  0
   39.8458   48.5102   40.0852 C   0  0  0  0  0  0  0  0  0  0  0  0
   31.0028   58.1674   43.4226 C   0  0  0  0  0  0  0  0  0  0  0  0
   40.0077   46.0192   35.7480 O   0  0  0  0  0  0  0  0  0  0  0  0
   31.3238   58.1129   44.8556 C   0  0  0  0  0  0  0  0  0  0  0  0
   33.8545   55.1539   45.6054 N   0  0  0  0  0  0  0  0  0  0  0  0
   34.4415   52.9575   44.8679 C   0  0  0  0  0  0  0  0  0  0  0  0
   38.8829   46.6503   41.6008 C   0  0  0  0  0  0  0  0  0  0  0  0
   40.1985   46.1589   39.4625 O   0  0  0  0  0  0  0  0  0  0  0  0
   31.6397   55.3229   45.7187 O   0  0  0  0  0  0  0  0  0  0  0  0
   32.4995   57.2330   45.3202 C   0  0  0  0  0  0  0  0  0  0  0  0
   37.9300   50.2603   44.2279 C   0  0  0  0  0  0  0  0  0  0  0  0
   37.8634   47.3704   37.0338 N   0  0  0  0  0  0  0  0  0  0  0  0
   37.2434   51.3748   44.8522 C   0  0  0  0  0  0  0  0  0  0  0  0
   40.4877   46.5229   38.0903 C   0  0  0  0  0  0  0  0  0  0  0  0
   39.6492   45.7117   37.1139 C   0  0  0  0  0  0  0  0  0  0  0  0
   36.5666   52.3085   44.1159 C   0  0  0  0  0  0  0  0  0  0  0  0
   38.5800   49.0131   42.1504 C   0  0  0  0  0  0  0  0  0  0  0  0
   32.6753   55.8448   45.5541 C   0  0  0  0  0  0  0  0  0  0  0  0
   39.6508   47.1584   40.3503 C   0  0  0  0  0  0  0  0  0  0  0  0
   29.9948   57.9834   45.6427 C   0  0  0  0  0  0  0  0  0  0  0  0
  1  6  1  0
  1 19  1  0
  1 29  2  0
  2  8  1  0
  2 17  1  0
  3 13  2  0
  3 29  1  0
  4  7  2  0
  4 28  1  0
  5 16  1  0
  7  9  1  0
  8 12  1  0
  9 23  2  0
  9 29  1  0
 10 24  1  0
 10 27  1  0
 11 17  1  0
 11 18  1  0
 12 18  1  0
 12 28  1  0
 13 31  1  0
 14 16  1  0
 15 27  1  0
 16 22  1  0
 16 32  1  0
 17 30  1  0
 19 31  2  0
 20 26  1  0
 20 31  1  0
 21 30  2  0
 22 30  1  0
 23 25  1  0
 25 28  2  0
 26 27  1  0
M  END
$$$$
