
     RDKit          3D

 35 38  0  0  0  0  0  0  0  0999 V2000
   38.9398   46.1488   36.6018 F   0  0  0  0  0  0  0  0  0  0  0  0
   31.8199   58.3920   44.2740 C   0  0  0  0  0  0  0  0  0  0  0  0
   30.6304   58.5309   45.2058 C   0  0  0  0  0  0  0  0  0  0  0  0
   38.2935   45.6106   39.3203 C   0  0  0  0  0  0  0  0  0  0  0  0
   36.0943   52.2853   44.1824 N   0  0  0  0  0  0  0  0  0  0  0  0
   34.6556   50.2272   44.4863 C   0  0  0  0  0  0  0  0  0  0  0  0
   34.9828   55.9913   45.4007 C   0  0  0  0  0  0  0  0  0  0  0  0
   30.9617   57.9422   46.6319 C   0  0  0  0  0  0  0  0  0  0  0  0
   38.6009   46.0771   41.5233 C   0  0  0  0  0  0  0  0  0  0  0  0
   33.6034   55.6914   45.9805 C   0  0  0  0  0  0  0  0  0  0  0  0
   38.2425   45.2076   40.6015 N   0  0  0  0  0  0  0  0  0  0  0  0
   39.0860   47.3035   41.2426 C   0  0  0  0  0  0  0  0  0  0  0  0
   32.5619   56.4364   45.5410 N   0  0  0  0  0  0  0  0  0  0  0  0
   34.9348   54.2806   43.7078 C   0  0  0  0  0  0  0  0  0  0  0  0
   37.1843   48.7037   44.2339 C   0  0  0  0  0  0  0  0  0  0  0  0
   38.6258   48.2629   42.2375 C   0  0  0  0  0  0  0  0  0  0  0  0
   36.3873   52.7693   45.4047 C   0  0  0  0  0  0  0  0  0  0  0  0
   34.8675   52.8454   43.6899 C   0  0  0  0  0  0  0  0  0  0  0  0
   37.8859   48.0112   36.9375 F   0  0  0  0  0  0  0  0  0  0  0  0
   39.0476   47.6403   39.9195 C   0  0  0  0  0  0  0  0  0  0  0  0
   40.1159   47.7383   37.1464 F   0  0  0  0  0  0  0  0  0  0  0  0
   38.8635   47.1788   37.3826 C   0  0  0  0  0  0  0  0  0  0  0  0
   36.8963   49.9628   43.7382 C   0  0  0  0  0  0  0  0  0  0  0  0
   35.2918   54.5816   45.0800 N   0  0  0  0  0  0  0  0  0  0  0  0
   31.3441   56.4747   46.3156 C   0  0  0  0  0  0  0  0  0  0  0  0
   38.0986   47.7999   43.4105 C   0  0  0  0  0  0  0  0  0  0  0  0
   33.4670   54.8318   46.8222 O   0  0  0  0  0  0  0  0  0  0  0  0
   37.9340   44.6842   38.3287 N   0  0  0  0  0  0  0  0  0  0  0  0
   32.4599   57.0209   44.2323 C   0  0  0  0  0  0  0  0  0  0  0  0
   38.7145   46.7389   38.9532 C   0  0  0  0  0  0  0  0  0  0  0  0
   37.3618   50.3529   42.5148 C   0  0  0  0  0  0  0  0  0  0  0  0
   38.2420   49.5252   41.7889 C   0  0  0  0  0  0  0  0  0  0  0  0
   29.4411   58.0478   44.6163 N   0  0  0  0  0  0  0  0  0  0  0  0
   36.6379   54.1394   45.3806 C   0  0  0  0  0  0  0  0  0  0  0  0
   36.0287   50.8375   44.4976 C   0  0  0  0  0  0  0  0  0  0  0  0
  1 22  1  0
  2  3  1  0
  2 29  1  0
  3  8  1  0
  3 33  1  0
  4 11  1  0
  4 28  1  0
  4 30  2  0
  5 17  1  0
  5 18  1  0
  5 35  1  0
  6 35  1  0
  7 10  1  0
  7 24  1  0
  8 25  1  0
  9 11  2  0
  9 12  1  0
 10 13  1  0
 10 27  2  0
 12 16  1  0
 12 20  2  0
 13 25  1  0
 13 29  1  0
 14 18  1  0
 14 24  1  0
 15 23  1  0
 15 26  2  0
 16 26  1  0
 16 32  2  0
 17 34  1  0
 19 22  1  0
 20 30  1  0
 21 22  1  0
 22 30  1  0
 23 31  2  0
 23 35  1  0
 24 34  1  0
 31 32  1  0
M  END
$$$$
