
     RDKit          3D

 35 40  0  0  0  0  0  0  0  0999 V2000
   39.1526   47.9861   41.1808 N   0  0  0  0  0  0  0  0  0  0  0  0
   39.4461   45.6427   41.3412 C   0  0  0  0  0  0  0  0  0  0  0  0
   37.3489   49.3747   43.9607 C   0  0  0  0  0  0  0  0  0  0  0  0
   29.7329   58.1701   45.8169 C   0  0  0  0  0  0  0  0  0  0  0  0
   40.2130   46.1659   36.9672 C   0  0  0  0  0  0  0  0  0  0  0  0
   34.3750   55.4689   44.3773 C   0  0  0  0  0  0  0  0  0  0  0  0
   33.0284   56.0634   44.4721 N   0  0  0  0  0  0  0  0  0  0  0  0
   37.1938   51.5053   42.1937 C   0  0  0  0  0  0  0  0  0  0  0  0
   38.2193   47.0527   38.1326 C   0  0  0  0  0  0  0  0  0  0  0  0
   30.2287   57.1020   46.2887 N   0  0  0  0  0  0  0  0  0  0  0  0
   37.9225   49.2732   42.7602 C   0  0  0  0  0  0  0  0  0  0  0  0
   39.6469   46.8616   38.0576 C   0  0  0  0  0  0  0  0  0  0  0  0
   32.9889   53.6809   45.6566 C   0  0  0  0  0  0  0  0  0  0  0  0
   39.6524   46.8416   40.6649 C   0  0  0  0  0  0  0  0  0  0  0  0
   34.7585   53.1571   44.4055 N   0  0  0  0  0  0  0  0  0  0  0  0
   31.7467   54.8336   45.8511 C   0  0  0  0  0  0  0  0  0  0  0  0
   37.8436   50.2721   41.9230 C   0  0  0  0  0  0  0  0  0  0  0  0
   32.4657   55.9522   45.8305 C   0  0  0  0  0  0  0  0  0  0  0  0
   30.6711   58.6429   44.7798 N   0  0  0  0  0  0  0  0  0  0  0  0
   38.2744   46.8652   43.0554 C   0  0  0  0  0  0  0  0  0  0  0  0
   39.4585   45.7135   35.8479 C   0  0  0  0  0  0  0  0  0  0  0  0
   33.0383   57.4742   44.2564 C   0  0  0  0  0  0  0  0  0  0  0  0
   31.3370   56.8997   45.7462 C   0  0  0  0  0  0  0  0  0  0  0  0
   38.0520   45.9309   35.9628 C   0  0  0  0  0  0  0  0  0  0  0  0
   37.4511   46.6409   37.0521 C   0  0  0  0  0  0  0  0  0  0  0  0
   40.4177   46.8460   39.3602 C   0  0  0  0  0  0  0  0  0  0  0  0
   36.7289   50.5479   44.2637 C   0  0  0  0  0  0  0  0  0  0  0  0
   36.8828   53.8906   44.0077 O   0  0  0  0  0  0  0  0  0  0  0  0
   36.0948   50.7288   45.8779 Cl  0  0  0  0  0  0  0  0  0  0  0  0
   38.5184   48.0588   42.3575 C   0  0  0  0  0  0  0  0  0  0  0  0
   31.7111   57.7887   44.8437 C   0  0  0  0  0  0  0  0  0  0  0  0
   34.2734   54.2666   45.2162 C   0  0  0  0  0  0  0  0  0  0  0  0
   36.4432   51.6605   43.3703 C   0  0  0  0  0  0  0  0  0  0  0  0
   36.0448   53.0205   43.8296 C   0  0  0  0  0  0  0  0  0  0  0  0
   38.7744   45.6634   42.5589 C   0  0  0  0  0  0  0  0  0  0  0  0
  1 14  4  0
  1 30  4  0
  2 14  4  0
  2 35  4  0
  3 11  4  0
  3 27  4  0
  4 10  4  0
  4 19  4  0
  5 12  4  0
  5 21  4  0
  6  7  1  0
  6 32  1  0
  7 18  1  0
  7 22  1  0
  8 17  4  0
  8 33  4  0
  9 12  4  0
  9 25  4  0
 10 23  4  0
 11 17  4  0
 11 30  1  0
 12 26  1  0
 13 16  1  0
 13 32  1  0
 14 26  1  0
 15 32  1  0
 15 34  1  0
 16 18  1  0
 18 23  1  0
 19 31  4  0
 20 30  4  0
 20 35  4  0
 21 24  4  0
 22 31  1  0
 23 31  4  0
 24 25  4  0
 27 29  1  0
 27 33  4  0
 28 34  2  0
 33 34  1  0
M  END
$$$$
