
     RDKit          3D

 20 20  0  0  0  0  0  0  0  0999 V2000
    6.0052  -15.0367  -15.3354 O   0  0  0  0  0  0  0  0  0  0  0  0
    3.4772  -15.2243  -14.1041 O   0  0  0  0  0  0  0  0  0  0  0  0
    5.3126  -16.0449  -11.0971 O   0  0  0  0  0  0  0  0  0  0  0  0
    4.5332  -14.3861  -13.5734 C   0  0  1  0  0  0  0  0  0  0  0  0
    4.4920  -12.2862  -10.2614 C   0  0  0  0  0  0  0  0  0  0  0  0
    5.2184  -13.0813  -11.3833 C   0  0  1  0  0  0  0  0  0  0  0  0
    4.2198  -14.0776  -12.0863 C   0  0  2  0  0  0  0  0  0  0  0  0
    8.2639  -14.7870  -14.0131 O   0  0  0  0  0  0  0  0  0  0  0  0
    6.6484  -11.7874   -9.2333 O   0  0  0  0  0  0  0  0  0  0  0  0
    7.0969  -14.3390  -13.2813 C   0  0  1  0  0  0  0  0  0  0  0  0
    7.0878  -12.7905  -13.2331 C   0  0  2  0  0  0  0  0  0  0  0  0
    5.4284  -11.8144   -9.1804 C   0  0  0  0  0  0  0  0  0  0  0  0
    7.1611  -12.1449  -14.6267 C   0  0  0  0  0  0  0  0  0  0  0  0
    4.0684  -15.3768  -11.2539 C   0  0  0  0  0  0  0  0  0  0  0  0
    2.9107  -13.4550  -12.1146 O   0  0  0  0  0  0  0  0  0  0  0  0
    8.3476  -12.4461  -12.5894 O   0  0  0  0  0  0  0  0  0  0  0  0
    5.9231  -12.1401  -12.4045 C   0  0  2  0  0  0  0  0  0  0  0  0
    6.4673  -10.9683  -11.7690 O   0  0  0  0  0  0  0  0  0  0  0  0
    5.8788  -15.0278  -13.8954 C   0  0  2  0  0  0  0  0  0  0  0  0
    4.7749  -11.3766   -8.0886 O   0  0  0  0  0  0  0  0  0  0  0  0
 19  1  1  6
  4  2  1  1
  3 14  1  0
  4  7  1  0
  4 19  1  0
  6  5  1  6
  5 12  1  0
  6  7  1  0
  6 17  1  0
  7 14  1  0
  7 15  1  6
 10  8  1  6
  9 12  2  0
 10 11  1  0
 10 19  1  0
 11 13  1  6
 11 16  1  0
 11 17  1  0
 12 20  1  0
 17 18  1  1
M  END
$$$$
