
     RDKit          3D

 12 12  0  0  0  0  0  0  0  0999 V2000
    7.3564  -11.2085  -12.5723 O   0  0  0  0  0  0  0  0  0  0  0  0
    5.1367  -15.2658  -11.5620 C   0  0  0  0  0  0  0  0  0  0  0  0
    5.9514  -14.4994  -12.4086 C   0  0  0  0  0  0  0  0  0  0  0  0
    6.4423  -16.1564  -14.0688 O   0  0  0  0  0  0  0  0  0  0  0  0
    5.3649  -13.6009   -9.8269 C   0  0  0  0  0  0  0  0  0  0  0  0
    6.4990  -13.2940  -11.9545 C   0  0  0  0  0  0  0  0  0  0  0  0
    8.2774  -12.9935  -13.5552 O   0  0  0  0  0  0  0  0  0  0  0  0
    4.8435  -14.8138  -10.2747 C   0  0  0  0  0  0  0  0  0  0  0  0
    5.8881  -14.0703  -14.6903 O   0  0  0  0  0  0  0  0  0  0  0  0
    6.1662  -15.0105  -13.7715 C   0  0  0  0  0  0  0  0  0  0  0  0
    6.1938  -12.8447  -10.6593 C   0  0  0  0  0  0  0  0  0  0  0  0
    7.4613  -12.5339  -12.7803 C   0  0  0  0  0  0  0  0  0  0  0  0
  1 12  1  0
  2  3  2  0
  2  8  1  0
  3  6  1  0
  3 10  1  0
  4 10  2  0
  5  8  2  0
  5 11  1  0
  6 11  2  0
  6 12  1  0
  7 12  2  0
  9 10  1  0
M  END
$$$$
