
     RDKit          3D

 17 17  0  0  0  0  0  0  0  0999 V2000
    2.5068  -10.0473   14.2361 C   0  0  0  0  0  0  0  0  0  0  0  0
    6.1171  -11.3799   19.3252 C   0  0  0  0  0  0  0  0  0  0  0  0
    1.6272  -10.8373   14.9188 C   0  0  0  0  0  0  0  0  0  0  0  0
    3.4011   -9.2180   17.6602 C   0  0  0  0  0  0  0  0  0  0  0  0
    2.8730   -9.7188   16.3722 C   0  0  0  0  0  0  0  0  0  0  0  0
    5.8440  -12.8656   19.6500 C   0  0  0  0  0  0  0  0  0  0  0  0
    4.1335   -8.0310   17.3603 O   0  0  0  0  0  0  0  0  0  0  0  0
    2.7402   -9.8892   12.7270 C   0  0  0  0  0  0  0  0  0  0  0  0
    3.4604   -9.7746   21.1772 O   0  0  0  0  0  0  0  0  0  0  0  0
    5.2265  -10.8274   18.2555 N   0  0  0  0  0  0  0  0  0  0  0  0
    3.5173   -9.7660   19.7302 N   0  0  0  0  0  0  0  0  0  0  0  0
    5.8228  -13.2878   21.0399 O   0  0  0  0  0  0  0  0  0  0  0  0
    1.6321  -10.4387   11.9598 O   0  0  0  0  0  0  0  0  0  0  0  0
    1.9497  -10.5660   16.2553 C   0  0  0  0  0  0  0  0  0  0  0  0
    4.1851   -9.9072   18.6251 C   0  0  0  0  0  0  0  0  0  0  0  0
    5.2868  -13.6157   18.8164 O   0  0  0  0  0  0  0  0  0  0  0  0
    3.2793   -9.3531   15.1008 O   0  0  0  0  0  0  0  0  0  0  0  0
  1  3  2  0
  1  8  1  0
  1 17  1  0
  2  6  1  0
  2 10  1  0
  3 14  1  0
  4  5  1  0
  4  7  1  0
  4 15  1  0
  5 14  2  0
  5 17  1  0
  6 12  1  0
  6 16  2  0
  8 13  1  0
  9 11  1  0
 10 15  1  0
 11 15  2  3
M  END
$$$$
