
     RDKit          3D

 20 21  0  0  0  0  0  0  0  0999 V2000
   29.7992    1.2407   -9.2681 O   0  0  0  0  0  0  0  0  0  0  0  0
   36.9622    5.4014   -4.9963 C   0  0  0  0  0  0  0  0  0  0  0  0
   29.0367    2.9613  -10.4162 O   0  0  0  0  0  0  0  0  0  0  0  0
   29.7253    3.4455   -8.1733 C   0  0  0  0  0  0  0  0  0  0  0  0
   29.9282    2.1641   -6.7950 C   0  0  0  0  0  0  0  0  0  0  0  0
   37.3374    5.0224   -3.6820 C   0  0  0  0  0  0  0  0  0  0  0  0
   35.9086    4.7304   -5.7479 C   0  0  0  0  0  0  0  0  0  0  0  0
   34.8818    3.8116   -3.8863 C   0  0  0  0  0  0  0  0  0  0  0  0
   31.1852    4.5457   -6.7729 C   0  0  0  0  0  0  0  0  0  0  0  0
   38.7599    6.0510   -3.1243 Cl  0  0  0  0  0  0  0  0  0  0  0  0
   33.6327    3.6244   -5.9386 C   0  0  0  0  0  0  0  0  0  0  0  0
   30.6819    2.0384   -3.8451 O   0  0  0  0  0  0  0  0  0  0  0  0
   30.9509    3.1125   -7.2237 C   0  0  0  0  0  0  0  0  0  0  0  0
   28.8667    1.4492   -4.9339 O   0  0  0  0  0  0  0  0  0  0  0  0
   34.8111    3.9717   -5.0877 C   0  0  0  0  0  0  0  0  0  0  0  0
   37.9738    4.9543   -3.3917 C   0  0  0  0  0  0  0  0  0  0  0  0
   29.4900    2.5907   -9.3188 C   0  0  0  0  0  0  0  0  0  0  0  0
   35.8601    4.4540   -3.1621 C   0  0  0  0  0  0  0  0  0  0  0  0
   32.1905    4.2795   -5.6660 C   0  0  0  0  0  0  0  0  0  0  0  0
   30.1169    2.1023   -4.8855 C   0  0  0  0  0  0  0  0  0  0  0  0
  1 17  2  0
  2  6  1  0
  2  7  2  0
  3 17  1  0
  4  5  1  0
  4 13  1  0
  4 17  1  0
  5 13  1  0
  5 20  1  0
  6 16  1  0
  6 18  2  0
  7 15  1  0
  8 15  2  0
  8 18  1  0
  9 13  1  0
  9 19  1  0
 10 16  1  0
 11 15  1  0
 11 19  1  0
 12 20  1  0
 14 20  2  0
M  END
$$$$
