
     RDKit          3D

 23 27  0  0  0  0  0  0  0  0999 V2000
   63.0394   54.9101  107.9236 C   0  0  0  0  0  0  0  0  0  0  0  0
   64.4299   56.7551  109.1220 C   0  0  0  0  0  0  0  0  0  0  0  0
   62.0852   56.6515  109.8477 C   0  0  0  0  0  0  0  0  0  0  0  0
   63.1796   52.0993  110.0403 C   0  0  0  0  0  0  0  0  0  0  0  0
   62.3542   56.8969  110.9606 O   0  0  0  0  0  0  0  0  0  0  0  0
   60.9658   53.5197  108.1388 O   0  0  0  0  0  0  0  0  0  0  0  0
   62.6175   49.7395  110.4235 C   0  0  0  0  0  0  0  0  0  0  0  0
   60.6218   56.7664  109.3604 C   0  0  0  0  0  0  0  0  0  0  0  0
   65.2486   55.6163  108.4452 C   0  0  0  0  0  0  0  0  0  0  0  0
   61.4333   56.4687  106.9465 C   0  0  0  0  0  0  0  0  0  0  0  0
   62.0466   53.7554  108.3285 C   0  0  0  0  0  0  0  0  0  0  0  0
   63.6117   52.7554  110.1069 C   0  0  0  0  0  0  0  0  0  0  0  0
   62.7821   51.9407  109.7830 C   0  0  0  0  0  0  0  0  0  0  0  0
   62.6438   55.8721  107.5647 C   0  0  0  0  0  0  0  0  0  0  0  0
   60.3164   56.4953  107.9146 C   0  0  0  0  0  0  0  0  0  0  0  0
   59.1317   56.1805  107.4735 C   0  0  0  0  0  0  0  0  0  0  0  0
   62.0682   50.6726  109.4095 C   0  0  0  0  0  0  0  0  0  0  0  0
   63.3852   50.5499  111.3534 C   0  0  0  0  0  0  0  0  0  0  0  0
   64.8615   52.2522  109.7342 O   0  0  0  0  0  0  0  0  0  0  0  0
   63.5512   53.7693  111.2473 C   0  0  0  0  0  0  0  0  0  0  0  0
   63.1534   53.2852  108.8326 C   0  0  0  0  0  0  0  0  0  0  0  0
   63.0701   56.2243  108.8435 C   0  0  0  0  0  0  0  0  0  0  0  0
   64.4411   54.6822  108.0288 C   0  0  0  0  0  0  0  0  0  0  0  0
  1 11  1  0
  1 14  1  0
  1 22  1  0
  1 23  1  0
  2  9  1  0
  2 22  1  0
  3  5  2  0
  3  8  1  0
  3 22  1  0
  4 12  1  0
  4 13  1  0
  6 11  2  0
  7 17  1  0
  7 18  1  0
  8 15  1  0
  9 23  2  0
 10 14  1  0
 10 15  1  0
 11 21  1  0
 12 13  1  0
 12 19  1  0
 12 20  1  0
 12 21  1  0
 13 17  1  0
 13 21  1  0
 14 22  1  0
 15 16  2  0
M  END
$$$$
