
     RDKit          3D

 20 22  0  0  0  0  0  0  0  0999 V2000
   -6.1060  -15.8909   -9.1276 C   0  0  0  0  0  0  0  0  0  0  0  0
   -3.8942  -16.4942  -10.3180 C   0  0  0  0  0  0  0  0  0  0  0  0
   -1.5177  -19.2069  -13.2115 C   0  0  0  0  0  0  0  0  0  0  0  0
   -1.5991  -19.5177  -14.6655 C   0  0  0  0  0  0  0  0  0  0  0  0
   -4.7021  -15.6298  -10.9075 C   0  0  0  0  0  0  0  0  0  0  0  0
   -2.4006  -18.0450  -11.3220 C   0  0  0  0  0  0  0  0  0  0  0  0
   -2.3507  -18.2726  -12.6859 C   0  0  0  0  0  0  0  0  0  0  0  0
   -1.9832  -18.5649   -9.0535 C   0  0  0  0  0  0  0  0  0  0  0  0
   -5.3297  -16.7566   -8.4572 C   0  0  0  0  0  0  0  0  0  0  0  0
   -3.1990  -17.5738  -13.4924 O   0  0  0  0  0  0  0  0  0  0  0  0
    0.2656  -20.8948  -13.0079 C   0  0  0  0  0  0  0  0  0  0  0  0
   -7.5692  -15.4592   -8.5071 Cl  0  0  0  0  0  0  0  0  0  0  0  0
   -4.1156  -17.0874   -9.1169 C   0  0  0  0  0  0  0  0  0  0  0  0
   -1.4234  -18.5903  -10.5083 C   0  0  0  0  0  0  0  0  0  0  0  0
   -2.7942  -16.7425  -11.0987 O   0  0  0  0  0  0  0  0  0  0  0  0
   -4.4497  -15.0378  -12.1744 O   0  0  0  0  0  0  0  0  0  0  0  0
   -0.6214  -19.8906  -12.4388 C   0  0  0  0  0  0  0  0  0  0  0  0
   -0.5697  -19.5975  -11.0588 C   0  0  0  0  0  0  0  0  0  0  0  0
   -3.0852  -18.0004   -8.5299 C   0  0  0  0  0  0  0  0  0  0  0  0
   -5.8430  -15.3040  -10.2929 C   0  0  0  0  0  0  0  0  0  0  0  0
  1  9  1  0
  1 12  1  0
  1 20  2  0
  2  5  2  0
  2 13  1  0
  2 15  1  0
  3  4  1  0
  3  7  2  0
  3 17  1  0
  5 16  1  0
  5 20  1  0
  6  7  1  0
  6 14  2  0
  6 15  1  0
  7 10  1  0
  8 14  1  0
  8 19  2  0
  9 13  2  0
 11 17  1  0
 13 19  1  0
 14 18  1  0
 17 18  2  0
M  END
$$$$
