
     RDKit          3D

 20 24  0  0  0  0  0  0  0  0999 V2000
  -26.7547   33.1615  -43.9568 C   0  0  0  0  0  0  0  0  0  0  0  0
  -27.9113   32.5487  -43.5381 N   0  0  0  0  0  0  0  0  0  0  0  0
  -27.5078   35.3914  -44.6015 N   0  0  0  0  0  0  0  0  0  0  0  0
  -24.8704   37.4233  -47.7047 C   0  0  2  0  0  0  0  0  0  0  0  0
  -21.9844   37.9220  -47.0470 C   0  0  0  0  0  0  0  0  0  0  0  0
  -24.1628   33.7237  -44.6590 C   0  0  0  0  0  0  0  0  0  0  0  0
  -23.2914   36.4355  -45.6311 C   0  0  1  0  0  0  0  0  0  0  0  0
  -24.7917   36.0596  -45.5104 C   0  0  1  0  0  0  0  0  0  0  0  0
  -25.4740   36.2527  -46.8926 C   0  0  0  0  0  0  0  0  0  0  0  0
  -22.3823   36.7024  -47.8721 C   0  0  1  0  0  0  0  0  0  0  0  0
  -22.5698   35.6669  -46.7684 C   0  0  0  0  0  0  0  0  0  0  0  0
  -27.6045   31.2846  -43.1244 C   0  0  0  0  0  0  0  0  0  0  0  0
  -24.4604   32.4682  -44.1126 C   0  0  0  0  0  0  0  0  0  0  0  0
  -25.7837   32.1853  -43.7725 C   0  0  0  0  0  0  0  0  0  0  0  0
  -23.1173   37.9462  -46.0190 C   0  0  2  0  0  0  0  0  0  0  0  0
  -25.1496   34.7087  -44.8689 C   0  0  0  0  0  0  0  0  0  0  0  0
  -23.7074   36.9634  -48.6219 C   0  0  0  0  0  0  0  0  0  0  0  0
  -24.3675   38.4956  -46.7309 C   0  0  0  0  0  0  0  0  0  0  0  0
  -26.3228   31.0346  -43.2480 N   0  0  0  0  0  0  0  0  0  0  0  0
  -26.4889   34.4446  -44.4607 C   0  0  0  0  0  0  0  0  0  0  0  0
  1  2  1  0
  1 14  1  0
  1 20  2  0
  2 12  1  0
  3 20  1  0
  4  9  1  1
  4 17  1  0
  4 18  1  0
  5 10  1  0
 15  5  1  6
  6 13  1  0
  6 16  2  0
  7  8  1  0
  7 11  1  6
  7 15  1  0
  8  9  1  0
  8 16  1  6
 10 11  1  1
 10 17  1  0
 12 19  2  0
 13 14  2  0
 14 19  1  0
 15 18  1  0
 16 20  1  0
M  END
$$$$
