
     RDKit          3D

 12 12  0  0  0  0  0  0  0  0999 V2000
  -22.4561   35.2714  -47.9134 O   0  0  0  0  0  0  0  0  0  0  0  0
  -24.2993   36.1867  -46.6681 C   0  0  0  0  0  0  0  0  0  0  0  0
  -25.8881   35.3347  -44.8121 C   0  0  0  0  0  0  0  0  0  0  0  0
  -22.9185   35.5454  -46.5928 C   0  0  0  0  0  0  0  0  0  0  0  0
  -27.1645   32.5668  -44.6678 C   0  0  0  0  0  0  0  0  0  0  0  0
  -24.9739   36.4607  -45.3195 C   0  0  0  0  0  0  0  0  0  0  0  0
  -25.3437   31.8513  -43.4212 C   0  0  0  0  0  0  0  0  0  0  0  0
  -23.9980   36.8009  -44.3408 O   0  0  0  0  0  0  0  0  0  0  0  0
  -25.1798   34.0063  -44.5254 C   0  0  0  0  0  0  0  0  0  0  0  0
  -27.6460   31.3280  -43.9247 C   0  0  0  0  0  0  0  0  0  0  0  0
  -26.4669   30.8925  -43.0630 C   0  0  0  0  0  0  0  0  0  0  0  0
  -26.0638   33.0590  -43.8354 N   0  0  0  0  0  0  0  0  0  0  0  0
  1  4  1  0
  2  4  1  0
  2  6  1  0
  3  6  1  0
  3  9  1  0
  5 10  1  0
  5 12  1  0
  6  8  1  0
  7 11  1  0
  7 12  1  0
  9 12  1  0
 10 11  1  0
M  END
$$$$
