
     RDKit          3D

 27 31  0  0  0  0  0  0  0  0999 V2000
  -11.9929  -24.0470   -1.1704 C   0  0  0  0  0  0  0  0  0  0  0  0
  -15.2634  -28.1238   -2.2907 C   0  0  0  0  0  0  0  0  0  0  0  0
  -17.5878  -30.2383    1.0119 C   0  0  0  0  0  0  0  0  0  0  0  0
  -10.7983  -25.9080   -0.2178 C   0  0  0  0  0  0  0  0  0  0  0  0
  -15.1798  -27.8659   -0.7201 C   0  0  0  0  0  0  0  0  0  0  0  0
  -15.6825  -26.4640   -0.4565 C   0  0  0  0  0  0  0  0  0  0  0  0
  -16.7084  -30.6627    1.9237 C   0  0  0  0  0  0  0  0  0  0  0  0
  -17.1117  -29.2716    0.0484 C   0  0  0  0  0  0  0  0  0  0  0  0
  -13.2556  -28.9551   -1.5396 C   0  0  0  0  0  0  0  0  0  0  0  0
  -12.9378  -26.7351   -0.5208 C   0  0  0  0  0  0  0  0  0  0  0  0
  -14.5502  -27.1044   -2.9240 O   0  0  0  0  0  0  0  0  0  0  0  0
  -11.8789  -29.0611   -1.7315 C   0  0  0  0  0  0  0  0  0  0  0  0
  -11.5033  -27.0191   -0.6395 C   0  0  0  0  0  0  0  0  0  0  0  0
  -11.7554  -24.8572    0.1148 C   0  0  0  0  0  0  0  0  0  0  0  0
  -15.8439  -28.8697    0.1314 C   0  0  0  0  0  0  0  0  0  0  0  0
  -11.3677  -23.9169    1.2423 C   0  0  0  0  0  0  0  0  0  0  0  0
  -12.9867  -25.6256    0.4977 C   0  0  0  0  0  0  0  0  0  0  0  0
  -14.3945  -29.3514   -2.3435 C   0  0  0  0  0  0  0  0  0  0  0  0
  -11.3487  -30.0675   -2.5584 C   0  0  0  0  0  0  0  0  0  0  0  0
  -16.5874  -28.3610   -2.9730 C   0  0  0  0  0  0  0  0  0  0  0  0
  -15.3847  -30.1845    1.9335 C   0  0  0  0  0  0  0  0  0  0  0  0
  -13.7193  -28.0327   -0.4637 C   0  0  0  0  0  0  0  0  0  0  0  0
   -9.6336  -25.7239   -0.2644 O   0  0  0  0  0  0  0  0  0  0  0  0
  -11.0323  -28.0682   -1.2182 C   0  0  0  0  0  0  0  0  0  0  0  0
  -15.0025  -29.3258    1.0428 C   0  0  0  0  0  0  0  0  0  0  0  0
   -9.7743  -28.0612   -1.3660 O   0  0  0  0  0  0  0  0  0  0  0  0
  -13.6091  -28.7991    0.8616 C   0  0  0  0  0  0  0  0  0  0  0  0
  1 14  1  0
  2  5  1  0
  2 11  1  0
  2 18  1  0
  2 20  1  0
  3  7  2  0
  3  8  1  0
  4 13  1  0
  4 14  1  0
  4 23  2  0
  5  6  1  0
  5 15  1  0
  5 22  1  0
  7 21  1  0
  8 15  2  0
  9 12  2  0
  9 18  1  0
  9 22  1  0
 10 13  1  0
 10 17  1  0
 10 22  1  0
 12 19  1  0
 12 24  1  0
 13 24  2  0
 14 16  1  0
 14 17  1  0
 15 25  1  0
 21 25  2  0
 22 27  1  0
 24 26  1  0
 25 27  1  0
M  END
$$$$
