
     RDKit          3D

 32 36  0  0  0  0  0  0  0  0999 V2000
    1.3053  -10.3937   18.3538 N   0  0  0  0  0  0  0  0  0  0  0  0
    4.4161  -12.0465   17.9979 C   0  0  0  0  0  0  0  0  0  0  0  0
    2.5081   -8.4067   17.9734 N   0  0  0  0  0  0  0  0  0  0  0  0
    3.8749  -12.0222   15.5709 C   0  0  0  0  0  0  0  0  0  0  0  0
    2.4109   -8.6062   16.6257 C   0  0  0  0  0  0  0  0  0  0  0  0
    4.2739   -9.2681   21.6771 C   0  0  2  0  0  0  0  0  0  0  0  0
    3.9409  -10.7638   23.4984 N   0  0  0  0  0  0  0  0  0  0  0  0
    3.8554  -12.5891   20.6906 C   0  0  0  0  0  0  0  0  0  0  0  0
    5.3911  -10.6078   12.4475 C   0  0  0  0  0  0  0  0  0  0  0  0
    5.2474  -11.0605   22.8554 C   0  0  0  0  0  0  0  0  0  0  0  0
    1.9368   -6.6638   15.0858 C   0  0  0  0  0  0  0  0  0  0  0  0
    1.8124   -9.7344   16.0759 C   0  0  0  0  0  0  0  0  0  0  0  0
    4.6192  -11.6223   16.6651 N   0  0  0  0  0  0  0  0  0  0  0  0
    3.7598   -6.5959   16.6216 O   0  0  0  0  0  0  0  0  0  0  0  0
    3.0475  -10.2757   13.9766 C   0  0  0  0  0  0  0  0  0  0  0  0
    3.5050   -8.6362   20.5241 C   0  0  0  0  0  0  0  0  0  0  0  0
    3.3765  -13.4297   19.6860 C   0  0  0  0  0  0  0  0  0  0  0  0
    2.0007   -9.3427   18.7858 C   0  0  0  0  0  0  0  0  0  0  0  0
    1.8280  -10.0730   14.6966 N   0  0  0  0  0  0  0  0  0  0  0  0
    3.0065   -7.4926   15.7835 C   0  0  1  0  0  0  0  0  0  0  0  0
    5.1578  -10.4999   21.4241 C   0  0  1  0  0  0  0  0  0  0  0  0
    2.2840   -9.3328   20.1475 N   0  0  0  0  0  0  0  0  0  0  0  0
    5.2308  -11.3294   13.6291 C   0  0  0  0  0  0  0  0  0  0  0  0
    3.2116   -9.5956   12.7629 C   0  0  0  0  0  0  0  0  0  0  0  0
    4.9537  -11.2467   19.0181 C   0  0  0  0  0  0  0  0  0  0  0  0
    3.4455   -9.7814   22.8119 C   0  0  0  0  0  0  0  0  0  0  0  0
    3.6506  -13.1570   18.3458 C   0  0  0  0  0  0  0  0  0  0  0  0
    1.2258  -10.5657   17.0175 C   0  0  0  0  0  0  0  0  0  0  0  0
    4.3804   -9.7501   12.0115 C   0  0  0  0  0  0  0  0  0  0  0  0
    3.0432  -12.9177   15.4952 O   0  0  0  0  0  0  0  0  0  0  0  0
    4.6532  -11.4817   20.3756 C   0  0  0  0  0  0  0  0  0  0  0  0
    4.0603  -11.1707   14.3802 C   0  0  0  0  0  0  0  0  0  0  0  0
  1 18  1  0
  1 28  2  0
  2 13  1  0
  2 25  2  0
  2 27  1  0
  3  5  1  0
  3 18  2  0
  4 13  1  0
  4 30  2  0
  4 32  1  0
  5 12  2  0
  5 20  1  0
  6 16  1  0
  6 21  1  0
  6 26  1  6
  7 10  1  0
  7 26  2  0
  8 17  1  0
  8 31  2  0
  9 23  1  0
  9 29  2  0
 21 10  1  6
 20 11  1  1
 12 19  1  0
 12 28  1  0
 14 20  1  0
 15 19  1  0
 15 24  2  0
 15 32  1  0
 16 22  1  0
 17 27  2  0
 18 22  1  0
 21 31  1  0
 23 32  2  0
 24 29  1  0
 25 31  1  0
M  END
$$$$
