
     RDKit          3D

 22 24  0  0  0  0  0  0  0  0999 V2000
   15.4040   13.6988   38.1860 N   0  0  0  0  0  0  0  0  0  0  0  0
   12.7829   13.1319   37.5481 C   0  0  0  0  0  0  0  0  0  0  0  0
   13.1831   14.4522   35.3386 C   0  0  2  0  0  0  0  0  0  0  0  0
   12.2471   14.0090   33.1170 C   0  0  0  0  0  0  0  0  0  0  0  0
    9.3524   12.8606   33.2643 C   0  0  0  0  0  0  0  0  0  0  0  0
   16.3270   16.0379   36.3155 O   0  0  0  0  0  0  0  0  0  0  0  0
   10.9829   14.8718   33.2005 C   0  0  0  0  0  0  0  0  0  0  0  0
   14.4868   15.0981   34.8816 C   0  0  2  0  0  0  0  0  0  0  0  0
    8.7140   12.0016   29.6751 C   0  0  0  0  0  0  0  0  0  0  0  0
   16.7743   16.2816   33.5919 O   0  0  0  0  0  0  0  0  0  0  0  0
    9.0166   13.0183   31.8501 N   0  0  0  0  0  0  0  0  0  0  0  0
   13.5452   13.8423   36.6659 C   0  0  0  0  0  0  0  0  0  0  0  0
   15.7543   14.3210   34.5691 C   0  0  1  0  0  0  0  0  0  0  0  0
   16.7980   14.8624   33.6476 C   0  0  0  0  0  0  0  0  0  0  0  0
    8.7024   11.7498   31.1842 C   0  0  0  0  0  0  0  0  0  0  0  0
   14.5687   13.0048   38.9795 C   0  0  0  0  0  0  0  0  0  0  0  0
   12.6940   13.4530   34.3977 N   0  0  0  0  0  0  0  0  0  0  0  0
   14.8596   14.0987   37.0263 C   0  0  0  0  0  0  0  0  0  0  0  0
   13.2799   12.6964   38.7226 N   0  0  0  0  0  0  0  0  0  0  0  0
   15.5511   14.8839   35.9520 C   0  0  1  0  0  0  0  0  0  0  0  0
    7.3438   11.1871   31.6053 C   0  0  0  0  0  0  0  0  0  0  0  0
    9.7792   14.1998   33.8753 C   0  0  0  0  0  0  0  0  0  0  0  0
  1 16  1  0
  1 18  2  0
  2 12  2  0
  2 19  1  0
  8  3  1  1
  3 12  1  0
  3 17  1  6
  4  7  1  0
  4 17  1  0
  5 11  1  0
  5 22  1  0
 20  6  1  1
  7 22  1  0
  8 13  1  0
  8 20  1  0
  9 15  1  0
 10 14  1  0
 11 15  1  0
 12 18  1  0
 13 14  1  6
 13 20  1  0
 15 21  1  0
 16 19  2  0
 18 20  1  0
M  END
$$$$
