
     RDKit          3D

 21 23  0  0  0  0  0  0  0  0999 V2000
   11.5152   -4.0790  -23.2938 O   0  0  0  0  0  0  0  0  0  0  0  0
    9.0406   -3.5941  -19.3689 O   0  0  0  0  0  0  0  0  0  0  0  0
   10.5183   -3.6051  -21.2711 C   0  0  0  0  0  0  0  0  0  0  0  0
   13.6475   -0.8636  -18.9858 C   0  0  0  0  0  0  0  0  0  0  0  0
   11.5123   -0.2080  -21.8979 C   0  0  0  0  0  0  0  0  0  0  0  0
    8.1484   -3.3469  -21.3792 O   0  0  0  0  0  0  0  0  0  0  0  0
   11.1728   -2.4441  -21.1490 C   0  0  0  0  0  0  0  0  0  0  0  0
   12.3807   -3.3466  -19.2342 C   0  0  0  0  0  0  0  0  0  0  0  0
   11.4172   -6.3110  -23.6258 C   0  0  0  0  0  0  0  0  0  0  0  0
   12.4800   -0.0263  -20.8566 C   0  0  0  0  0  0  0  0  0  0  0  0
   10.9843   -4.6044  -22.1984 C   0  0  0  0  0  0  0  0  0  0  0  0
   13.9685   -1.9017  -18.0611 C   0  0  0  0  0  0  0  0  0  0  0  0
   10.8653   -1.4078  -22.0552 C   0  0  0  0  0  0  0  0  0  0  0  0
   12.7263   -1.1072  -19.9839 C   0  0  0  0  0  0  0  0  0  0  0  0
    9.1757   -3.5322  -20.6616 C   0  0  0  0  0  0  0  0  0  0  0  0
   13.3219   -3.1311  -18.2116 C   0  0  0  0  0  0  0  0  0  0  0  0
   11.7644   -5.0906  -24.2246 N   0  0  0  0  0  0  0  0  0  0  0  0
   10.6943   -6.9965  -20.8046 Cl  0  0  0  0  0  0  0  0  0  0  0  0
   11.0012   -5.9940  -22.2166 C   0  0  0  0  0  0  0  0  0  0  0  0
   12.0845   -2.3313  -20.0830 C   0  0  0  0  0  0  0  0  0  0  0  0
   11.5464   -7.4710  -24.2884 N   0  0  0  0  0  0  0  0  0  0  0  0
  1 11  1  0
  1 17  1  0
  2 15  1  0
  3  7  1  0
  3 11  2  3
  3 15  1  0
  4 12  1  0
  4 14  2  0
  5 10  2  0
  5 13  1  0
  6 15  2  0
  7 13  2  0
  7 20  1  0
  8 16  1  0
  8 20  2  0
  9 17  2  0
  9 19  1  0
  9 21  1  0
 10 14  1  0
 11 19  1  0
 12 16  2  0
 14 20  1  0
 18 19  1  0
M  END
$$$$
