
     RDKit          3D

 17 18  0  0  0  0  0  0  0  0999 V2000
   10.7497   -1.9767  -23.2634 C   0  0  0  0  0  0  0  0  0  0  0  0
   10.4492   -4.1231  -22.2677 C   0  0  0  0  0  0  0  0  0  0  0  0
   10.3491   -4.5870  -18.8152 C   0  0  0  0  0  0  0  0  0  0  0  0
   11.5097   -4.4317  -18.3308 O   0  0  0  0  0  0  0  0  0  0  0  0
   11.2548   -3.4271  -23.3027 C   0  0  0  0  0  0  0  0  0  0  0  0
   11.8986   -0.1280  -22.0129 C   0  0  0  0  0  0  0  0  0  0  0  0
   11.3391   -1.3861  -22.0200 C   0  0  0  0  0  0  0  0  0  0  0  0
   11.3734   -1.6711  -19.7868 O   0  0  0  0  0  0  0  0  0  0  0  0
   10.7679   -5.4166  -22.0934 C   0  0  0  0  0  0  0  0  0  0  0  0
   10.8789   -3.5319  -21.0034 N   0  0  0  0  0  0  0  0  0  0  0  0
   10.0832   -5.7758  -20.8203 C   0  0  0  0  0  0  0  0  0  0  0  0
   10.6002   -6.2079  -23.2078 O   0  0  0  0  0  0  0  0  0  0  0  0
   10.8691   -6.6692  -20.1957 O   0  0  0  0  0  0  0  0  0  0  0  0
    8.5903   -3.7322  -20.2654 C   0  0  0  0  0  0  0  0  0  0  0  0
   11.1549   -2.2010  -20.8412 C   0  0  0  0  0  0  0  0  0  0  0  0
   10.0572   -4.4203  -20.1875 C   0  0  0  0  0  0  0  0  0  0  0  0
    9.3971   -4.9104  -18.0403 O   0  0  0  0  0  0  0  0  0  0  0  0
  1  5  1  0
  1  7  1  0
  2  5  1  0
  2  9  1  0
  2 10  1  0
  3  4  2  0
  3 16  1  0
  3 17  1  0
  6  7  1  0
  7 15  1  0
  8 15  2  0
  9 11  1  0
  9 12  1  0
 10 15  1  0
 10 16  1  0
 11 13  1  0
 11 16  1  0
 14 16  1  0
M  END
$$$$
