
     RDKit          3D

 14 13  0  0  0  0  0  0  0  0999 V2000
   -4.7131  -16.5819  -10.2022 C   0  0  0  0  0  0  0  0  0  0  0  0
   -2.1378  -17.2448  -14.7365 C   0  0  0  0  0  0  0  0  0  0  0  0
   -6.3237  -15.6602   -9.6408 C   0  0  0  0  0  0  0  0  0  0  0  0
   -2.3475  -15.8923  -14.7745 C   0  0  0  0  0  0  0  0  0  0  0  0
   -3.9756  -16.2244  -12.1289 O   0  0  0  0  0  0  0  0  0  0  0  0
   -1.7242  -18.4957  -12.5735 C   0  0  0  0  0  0  0  0  0  0  0  0
   -4.5747  -16.6779   -9.0547 C   0  0  0  0  0  0  0  0  0  0  0  0
   -2.8533  -18.1007  -15.5388 N   0  0  0  0  0  0  0  0  0  0  0  0
   -3.8816  -17.2187  -11.1493 C   0  0  0  0  0  0  0  0  0  0  0  0
   -7.2668  -14.9718   -9.8563 C   0  0  0  0  0  0  0  0  0  0  0  0
   -1.4679  -17.5856  -11.6004 C   0  0  0  0  0  0  0  0  0  0  0  0
   -2.5365  -17.5620  -10.5214 C   0  0  0  0  0  0  0  0  0  0  0  0
   -1.1597  -18.1191  -13.9889 C   0  0  0  0  0  0  0  0  0  0  0  0
   -5.5986  -15.9939   -8.5323 C   0  0  0  0  0  0  0  0  0  0  0  0
  1  7  2  3
  1  9  1  0
  2  4  1  0
  2  8  1  0
  2 13  1  0
  3 10  1  0
  3 14  1  0
  5  9  1  0
  6 11  1  0
  6 13  1  0
  7 14  1  0
  9 12  1  0
 11 12  1  0
M  END
$$$$
