
     RDKit          3D

 21 21  0  0  0  0  0  0  0  0999 V2000
   57.5268  -46.4829  112.6788 P   0  0  1  0  0  0  0  0  0  0  0  0
   56.9416  -46.0502  114.0538 O   0  0  0  0  0  0  0  0  0  0  0  0
   60.6407  -48.3055  115.5187 C   0  0  2  0  0  0  0  0  0  0  0  0
   60.2864  -48.8566  114.1646 C   0  0  2  0  0  0  0  0  0  0  0  0
   59.3624  -44.6370  112.1123 C   0  0  0  0  0  0  0  0  0  0  0  0
   61.1376  -46.1601  114.4831 O   0  0  0  0  0  0  0  0  0  0  0  0
   61.6615  -42.1351  116.8932 O   0  0  0  0  0  0  0  0  0  0  0  0
   61.7353  -42.2985  115.4949 C   0  0  0  0  0  0  0  0  0  0  0  0
   60.9655  -43.4820  114.9518 C   0  0  1  0  0  0  0  0  0  0  0  0
   62.9516  -45.0025  115.9140 O   0  0  0  0  0  0  0  0  0  0  0  0
   58.8824  -48.4887  113.7211 C   0  0  0  0  0  0  0  0  0  0  0  0
   59.3759  -43.8776  113.4040 C   0  0  0  0  0  0  0  0  0  0  0  0
   60.5827  -43.2008  113.6526 O   0  0  0  0  0  0  0  0  0  0  0  0
   57.9400  -45.0544  112.0748 O   0  0  0  0  0  0  0  0  0  0  0  0
   60.4346  -50.2678  114.1729 O   0  0  0  0  0  0  0  0  0  0  0  0
   62.0970  -44.8422  114.6701 P   0  0  1  0  0  0  0  0  0  0  0  0
   60.5438  -46.8092  115.6324 C   0  0  0  0  0  0  0  0  0  0  0  0
   58.9544  -47.3027  112.9229 O   0  0  0  0  0  0  0  0  0  0  0  0
   62.0518  -48.5479  115.7747 O   0  0  0  0  0  0  0  0  0  0  0  0
   56.7000  -47.3413  111.8026 O   0  0  0  0  0  0  0  0  0  0  0  0
   62.8640  -44.4675  113.4170 O   0  0  0  0  0  0  0  0  0  0  0  0
  1  2  1  1
  1 14  1  0
  1 18  1  0
  1 20  2  0
  3  4  1  0
  3 17  1  0
  3 19  1  6
  4 11  1  0
  4 15  1  1
  5 12  1  0
  5 14  1  0
  6 16  1  0
  6 17  1  0
  7  8  1  0
  9  8  1  6
  9 13  1  0
  9 16  1  0
 16 10  1  1
 11 18  1  0
 12 13  1  0
 16 21  2  0
M  END
