
     RDKit          3D

 18 20  0  0  0  0  0  0  0  0999 V2000
   22.8188   19.1947   30.9936 C   0  0  0  0  0  0  0  0  0  0  0  0
   27.1265   19.8833   37.4693 Cl  0  0  0  0  0  0  0  0  0  0  0  0
   25.5578   19.6171   35.0621 C   0  0  0  0  0  0  0  0  0  0  0  0
   25.4292   18.1671   30.1705 O   0  0  0  0  0  0  0  0  0  0  0  0
   24.1662   21.3744   34.3186 C   0  0  0  0  0  0  0  0  0  0  0  0
   26.1522   18.0127   34.8261 Cl  0  0  0  0  0  0  0  0  0  0  0  0
   24.8431   17.8109   31.2170 C   0  0  0  0  0  0  0  0  0  0  0  0
   23.8423   18.7675   31.8269 C   0  0  0  0  0  0  0  0  0  0  0  0
   25.4422   21.7330   36.3540 C   0  0  0  0  0  0  0  0  0  0  0  0
   25.0037   16.7048   31.7989 O   0  0  0  0  0  0  0  0  0  0  0  0
   22.2619   20.2859   31.4580 N   0  0  0  0  0  0  0  0  0  0  0  0
   23.0370   20.5791   32.4935 C   0  0  0  0  0  0  0  0  0  0  0  0
   24.0339   19.6470   32.8555 C   0  0  0  0  0  0  0  0  0  0  0  0
   25.9522   20.3986   36.1792 C   0  0  0  0  0  0  0  0  0  0  0  0
   24.1350   23.7761   35.5912 Cl  0  0  0  0  0  0  0  0  0  0  0  0
   24.5968   22.1520   35.3718 C   0  0  0  0  0  0  0  0  0  0  0  0
   23.1862   21.6082   33.3559 N   0  0  0  0  0  0  0  0  0  0  0  0
   24.6884   20.1029   34.1151 C   0  0  0  0  0  0  0  0  0  0  0  0
  1  8  1  0
  1 11  2  0
  2 14  1  0
  3  6  1  0
  3 14  1  0
  3 18  2  0
  4  7  1  0
  5 16  2  0
  5 17  1  0
  5 18  1  0
  7  8  1  0
  7 10  2  0
  8 13  2  0
  9 14  2  0
  9 16  1  0
 11 12  1  0
 12 13  1  0
 12 17  2  0
 13 18  1  0
 15 16  1  0
M  END
$$$$
