
     RDKit          3D

 17 19  0  0  0  0  0  0  0  0999 V2000
   23.8852   18.6216   31.8178 C   0  0  0  0  0  0  0  0  0  0  0  0
   21.6756   18.9413   30.2359 C   0  0  0  0  0  0  0  0  0  0  0  0
   23.0777   19.8116   33.4336 N   0  0  0  0  0  0  0  0  0  0  0  0
   23.8781   18.0455   30.5634 C   0  0  0  0  0  0  0  0  0  0  0  0
   21.6925   19.5013   31.4972 C   0  0  0  0  0  0  0  0  0  0  0  0
   25.3477   21.7623   36.4379 C   0  0  0  0  0  0  0  0  0  0  0  0
   27.1917   18.7058   37.9614 Cl  0  0  0  0  0  0  0  0  0  0  0  0
   25.5630   19.1005   35.7847 C   0  0  0  0  0  0  0  0  0  0  0  0
   22.8123   19.3400   32.2545 C   0  0  0  0  0  0  0  0  0  0  0  0
   24.7880   18.6637   32.8073 N   0  0  0  0  0  0  0  0  0  0  0  0
   22.7578   18.2534   29.7611 C   0  0  0  0  0  0  0  0  0  0  0  0
   25.6060   17.4369   35.3232 Cl  0  0  0  0  0  0  0  0  0  0  0  0
   26.2307   19.6047   36.8947 C   0  0  0  0  0  0  0  0  0  0  0  0
   24.7357   21.2566   35.2995 C   0  0  0  0  0  0  0  0  0  0  0  0
   24.8391   19.9344   35.0197 C   0  0  0  0  0  0  0  0  0  0  0  0
   26.0752   20.9312   37.2566 C   0  0  0  0  0  0  0  0  0  0  0  0
   24.2716   19.4297   33.8088 C   0  0  0  0  0  0  0  0  0  0  0  0
  1  4  1  0
  1  9  1  0
  1 10  2  0
  2  5  2  0
  2 11  1  0
  3  9  2  0
  3 17  1  0
  4 11  2  0
  5  9  1  0
  6 14  1  0
  6 16  2  0
  7 13  1  0
  8 12  1  0
  8 13  2  0
  8 15  1  0
 10 17  1  0
 13 16  1  0
 14 15  2  0
 15 17  1  0
M  END
$$$$
