
     RDKit          3D

 16 18  0  0  0  0  0  0  0  0999 V2000
   24.8978   19.7858   34.8131 C   0  0  0  0  0  0  0  0  0  0  0  0
   24.7549   18.4871   34.7092 C   0  0  0  0  0  0  0  0  0  0  0  0
   24.0709   18.4772   32.5156 C   0  0  0  0  0  0  0  0  0  0  0  0
   23.8265   17.7527   31.3820 C   0  0  0  0  0  0  0  0  0  0  0  0
   25.3920   17.7029   35.7528 C   0  0  0  0  0  0  0  0  0  0  0  0
   23.8518   19.8173   32.5223 C   0  0  0  0  0  0  0  0  0  0  0  0
   26.0681   19.6359   36.8584 C   0  0  0  0  0  0  0  0  0  0  0  0
   22.9694   19.7246   30.2656 C   0  0  0  0  0  0  0  0  0  0  0  0
   24.5113   17.8420   33.6176 N   0  0  0  0  0  0  0  0  0  0  0  0
   23.2519   18.3862   30.2984 C   0  0  0  0  0  0  0  0  0  0  0  0
   26.8960   20.1957   38.2016 Cl  0  0  0  0  0  0  0  0  0  0  0  0
   24.2407   20.5448   33.7173 C   0  0  0  0  0  0  0  0  0  0  0  0
   25.4931   20.4069   35.8653 C   0  0  0  0  0  0  0  0  0  0  0  0
   26.0484   18.2717   36.8058 C   0  0  0  0  0  0  0  0  0  0  0  0
   24.0394   21.7431   33.7751 O   0  0  0  0  0  0  0  0  0  0  0  0
   23.3291   20.4027   31.4000 C   0  0  0  0  0  0  0  0  0  0  0  0
  1  2  2  0
  1 12  1  0
  1 13  1  0
  2  5  1  0
  2  9  1  0
  3  4  2  0
  3  6  1  0
  3  9  1  0
  4 10  1  0
  5 14  2  0
  6 12  1  0
  6 16  2  0
  7 11  1  0
  7 13  2  0
  7 14  1  0
  8 10  2  0
  8 16  1  0
 12 15  2  0
M  END
$$$$
