
     RDKit          3D

 28 31  0  0  0  0  0  0  0  0999 V2000
   23.7593   21.7719   34.2172 C   0  0  0  0  0  0  0  0  0  0  0  0
   24.0490   23.0973   34.0816 C   0  0  0  0  0  0  0  0  0  0  0  0
   23.7667   18.1379   30.4335 C   0  0  0  0  0  0  0  0  0  0  0  0
   22.4792   22.1976   36.1623 C   0  0  0  0  0  0  0  0  0  0  0  0
   26.5607   19.8277   36.2609 C   0  0  0  0  0  0  0  0  0  0  0  0
   22.9593   21.2426   35.2536 C   0  0  0  0  0  0  0  0  0  0  0  0
   24.9948   18.3238   31.0784 C   0  0  0  0  0  0  0  0  0  0  0  0
   22.6832   20.0192   35.3378 O   0  0  0  0  0  0  0  0  0  0  0  0
   23.3148   25.3753   39.0314 C   0  0  0  0  0  0  0  0  0  0  0  0
   24.9181   17.8155   36.1307 C   0  0  0  0  0  0  0  0  0  0  0  0
   21.2572   26.2158   38.1180 C   0  0  0  0  0  0  0  0  0  0  0  0
   23.5499   23.9816   35.0018 C   0  0  0  0  0  0  0  0  0  0  0  0
   26.0662   17.6112   30.6699 O   0  0  0  0  0  0  0  0  0  0  0  0
   24.0710   20.0122   32.4333 C   0  0  0  0  0  0  0  0  0  0  0  0
   22.7761   23.5423   36.0470 C   0  0  0  0  0  0  0  0  0  0  0  0
   21.3973   25.3160   37.0732 C   0  0  0  0  0  0  0  0  0  0  0  0
   22.5002   24.4894   37.0588 C   0  0  0  0  0  0  0  0  0  0  0  0
   26.0986   16.2899   31.1724 C   0  0  0  0  0  0  0  0  0  0  0  0
   23.4593   24.5251   38.0264 N   0  0  0  0  0  0  0  0  0  0  0  0
   24.4862   20.9016   33.3743 N   0  0  0  0  0  0  0  0  0  0  0  0
   22.2024   26.2212   39.0809 C   0  0  0  0  0  0  0  0  0  0  0  0
   22.8541   19.8551   31.8101 C   0  0  0  0  0  0  0  0  0  0  0  0
   26.1992   18.4680   34.1160 C   0  0  0  0  0  0  0  0  0  0  0  0
   26.2103   19.4636   32.9649 C   0  0  0  0  0  0  0  0  0  0  0  0
   25.9421   20.8807   33.5192 C   0  0  0  0  0  0  0  0  0  0  0  0
   22.6635   18.9184   30.7980 C   0  0  0  0  0  0  0  0  0  0  0  0
   25.6457   18.9231   35.4374 C   0  0  0  0  0  0  0  0  0  0  0  0
   25.0857   19.2026   32.1152 C   0  0  0  0  0  0  0  0  0  0  0  0
  1  2  4  0
  1  6  4  0
  1 20  1  0
  2 12  4  0
  3  7  1  0
  3 26  2  0
  4  6  4  0
  4 15  4  0
  5 27  1  0
  6  8  2  0
  7 13  1  0
  7 28  2  0
  9 19  4  0
  9 21  4  0
 10 27  1  0
 11 16  4  0
 11 21  4  0
 12 15  4  0
 13 18  1  0
 14 20  1  0
 14 22  2  0
 14 28  1  0
 15 17  1  0
 16 17  4  0
 17 19  4  0
 20 25  1  0
 22 26  1  0
 23 24  1  0
 23 27  1  0
 24 25  1  0
 24 28  1  0
M  END
$$$$
