
     RDKit          3D

 26 27  0  0  0  0  0  0  0  0999 V2000
   31.9994   50.8151   83.1174 C   0  0  1  0  0  0  0  0  0  0  0  0
   29.9867   51.5282   81.6535 C   0  0  0  0  0  0  0  0  0  0  0  0
   34.4483   46.1559   81.8120 C   0  0  0  0  0  0  0  0  0  0  0  0
   29.1206   53.1774   79.1114 O   0  0  0  0  0  0  0  0  0  0  0  0
   35.1839   47.2146   82.1800 N   0  0  0  0  0  0  0  0  0  0  0  0
   32.7696   48.8941   84.5350 C   0  0  0  0  0  0  0  0  0  0  0  0
   33.1926   51.6528   83.6218 C   0  0  0  0  0  0  0  0  0  0  0  0
   29.0107   52.5593   81.5364 O   0  0  0  0  0  0  0  0  0  0  0  0
   33.1951   45.9167   82.2382 N   0  0  0  0  0  0  0  0  0  0  0  0
   35.0416   45.2007   80.8255 C   0  0  0  0  0  0  0  0  0  0  0  0
   28.9732   47.0690   84.0494 O   0  0  0  0  0  0  0  0  0  0  0  0
   31.6458   49.7083   84.0473 N   0  0  0  0  0  0  0  0  0  0  0  0
   32.6335   46.7955   83.1052 C   0  0  0  0  0  0  0  0  0  0  0  0
   26.2294   56.0515   80.7429 O   0  0  0  0  0  0  0  0  0  0  0  0
   27.5765   51.2056   79.8222 O   0  0  0  0  0  0  0  0  0  0  0  0
   30.8191   51.8043   82.9018 C   0  0  0  0  0  0  0  0  0  0  0  0
   33.3226   47.9097   83.5547 C   0  0  0  0  0  0  0  0  0  0  0  0
   27.4527   54.9214   82.5808 O   0  0  0  0  0  0  0  0  0  0  0  0
   34.6024   48.0607   83.0487 C   0  0  0  0  0  0  0  0  0  0  0  0
   31.2285   46.4352   83.5192 C   0  0  0  0  0  0  0  0  0  0  0  0
   28.1211   52.5446   80.1927 P   0  0  2  0  0  0  0  0  0  0  0  0
   27.4780   55.0944   80.9963 P   0  0  0  0  0  0  0  0  0  0  0  0
   27.0377   53.6860   80.4253 O   0  0  0  0  0  0  0  0  0  0  0  0
   30.3383   47.4924   84.1896 C   0  0  1  0  0  0  0  0  0  0  0  0
   28.7706   55.6062   80.4532 O   0  0  0  0  0  0  0  0  0  0  0  0
   30.5044   48.8987   83.5709 C   0  0  0  0  0  0  0  0  0  0  0  0
  1  7  1  1
  1 12  1  0
  1 16  1  0
  2  8  1  0
  2 16  1  0
  3  5  1  0
  3  9  2  0
  3 10  1  0
 21  4  1  6
  5 19  2  0
  6 12  1  0
  6 17  1  0
  8 21  1  0
  9 13  1  0
 24 11  1  6
 12 26  1  0
 13 17  2  0
 13 20  1  0
 14 22  1  0
 15 21  2  0
 17 19  1  0
 18 22  1  0
 20 24  1  0
 21 23  1  0
 22 23  1  0
 22 25  2  0
 24 26  1  0
M  END
$$$$
