
     RDKit          3D

 10 10  0  0  0  0  0  0  0  0999 V2000
   46.2957   38.9517   82.3498 O   0  0  0  0  0  0  0  0  0  0  0  0
   44.7374   39.5227   80.8269 C   0  0  0  0  0  0  0  0  0  0  0  0
   44.1045   39.1515   79.6882 C   0  0  0  0  0  0  0  0  0  0  0  0
   44.2977   37.8948   79.0123 C   0  0  0  0  0  0  0  0  0  0  0  0
   45.6867   38.6804   81.3215 C   0  0  0  0  0  0  0  0  0  0  0  0
   43.3063   39.7896   79.2312 N   0  0  0  0  0  0  0  0  0  0  0  0
   45.2517   37.0749   79.5675 C   0  0  0  0  0  0  0  0  0  0  0  0
   46.7886   36.3677   81.3523 C   0  0  0  0  0  0  0  0  0  0  0  0
   45.4957   35.9586   79.0332 O   0  0  0  0  0  0  0  0  0  0  0  0
   45.8879   37.4285   80.7563 N   0  0  0  0  0  0  0  0  0  0  0  0
  1  5  2  0
  2  3  2  0
  2  5  1  0
  3  4  1  0
  3  6  1  0
  4  7  1  0
  5 10  1  0
  7  9  2  0
  7 10  1  0
  8 10  1  0
M  END
$$$$
