
     RDKit          3D

 40 44  0  0  0  0  0  0  0  0999 V2000
  -21.9444   -0.1700  -30.8245 C   0  0  0  0  0  0  0  0  0  0  0  0
  -21.0978    5.8021  -28.7163 O   0  0  0  0  0  0  0  0  0  0  0  0
  -22.5594    0.8366  -29.8571 C   0  0  0  0  0  0  0  0  0  0  0  0
  -23.0267    3.2232  -30.2194 C   0  0  0  0  0  0  0  0  0  0  0  0
  -20.1944    3.1945  -29.0954 O   0  0  0  0  0  0  0  0  0  0  0  0
  -28.6132    4.3986  -34.6546 C   0  0  0  0  0  0  0  0  0  0  0  0
  -21.0095   -1.3030  -30.3862 C   0  0  0  0  0  0  0  0  0  0  0  0
  -29.5238    1.9264  -34.6541 C   0  0  0  0  0  0  0  0  0  0  0  0
  -24.6771    2.2761  -36.8914 C   0  0  0  0  0  0  0  0  0  0  0  0
  -25.7347    1.5444  -35.0345 C   0  0  0  0  0  0  0  0  0  0  0  0
  -26.1100    2.4779  -36.1728 C   0  0  0  0  0  0  0  0  0  0  0  0
  -26.2440   -0.2716  -33.7428 C   0  0  0  0  0  0  0  0  0  0  0  0
  -23.7595    1.3007  -37.7238 C   0  0  0  0  0  0  0  0  0  0  0  0
  -23.0675   -0.7081  -31.8346 O   0  0  0  0  0  0  0  0  0  0  0  0
  -20.4070   -1.0358  -27.9064 C   0  0  0  0  0  0  0  0  0  0  0  0
  -21.8606    5.0249  -29.4778 C   0  0  0  0  0  0  0  0  0  0  0  0
  -24.3869    1.7928  -31.5529 C   0  0  0  0  0  0  0  0  0  0  0  0
  -24.9236    4.5595  -31.3587 C   0  0  0  0  0  0  0  0  0  0  0  0
  -19.4467    0.4241  -29.3002 O   0  0  0  0  0  0  0  0  0  0  0  0
  -25.7916    1.9195  -31.1195 O   0  0  0  0  0  0  0  0  0  0  0  0
  -23.1732    1.8270  -30.9414 C   0  0  0  0  0  0  0  0  0  0  0  0
  -19.8244   -0.8894  -29.1192 C   0  0  0  0  0  0  0  0  0  0  0  0
  -23.0734    5.5997  -30.1124 C   0  0  0  0  0  0  0  0  0  0  0  0
  -27.5077    2.2641  -36.0860 N   0  0  0  0  0  0  0  0  0  0  0  0
  -21.7680   -1.9391  -30.2597 C   0  0  0  0  0  0  0  0  0  0  0  0
  -28.8096    2.9559  -35.8617 C   0  0  0  0  0  0  0  0  0  0  0  0
  -21.5618   -4.2884  -31.0956 O   0  0  0  0  0  0  0  0  0  0  0  0
  -20.8650   -3.3441  -30.5745 C   0  0  0  0  0  0  0  0  0  0  0  0
  -18.7930   -2.9967  -29.4504 O   0  0  0  0  0  0  0  0  0  0  0  0
  -25.7118    0.2766  -34.6220 C   0  0  0  0  0  0  0  0  0  0  0  0
  -27.4098   -1.1372  -34.0725 O   0  0  0  0  0  0  0  0  0  0  0  0
  -19.4486   -3.8590  -30.4467 C   0  0  0  0  0  0  0  0  0  0  0  0
  -25.0052   -0.8421  -32.7969 C   0  0  0  0  0  0  0  0  0  0  0  0
  -30.2315    3.8080  -36.2380 C   0  0  0  0  0  0  0  0  0  0  0  0
  -23.4011    4.6665  -31.1660 C   0  0  0  0  0  0  0  0  0  0  0  0
  -24.4442    0.1424  -33.9810 C   0  0  0  0  0  0  0  0  0  0  0  0
  -25.5235    5.7251  -31.9674 O   0  0  0  0  0  0  0  0  0  0  0  0
  -24.4998    3.2990  -32.4897 C   0  0  0  0  0  0  0  0  0  0  0  0
  -24.0286    0.4370  -31.6930 C   0  0  0  0  0  0  0  0  0  0  0  0
  -21.3889    3.5419  -29.6294 C   0  0  0  0  0  0  0  0  0  0  0  0
  1  3  1  0
  1  7  1  0
  1 14  1  0
  1 25  1  0
  2 16  2  0
  3 21  1  0
  4 21  1  0
  4 35  1  0
  4 40  1  0
  5 40  1  0
  6 26  1  0
  7 22  1  0
  7 25  1  0
  8 26  1  0
  9 11  1  0
  9 13  1  0
 10 11  1  0
 10 30  1  0
 11 24  1  0
 12 30  1  0
 12 31  1  0
 12 33  1  0
 14 39  1  0
 15 22  1  0
 16 23  1  0
 16 40  1  0
 17 20  1  0
 17 21  1  0
 17 38  1  0
 17 39  1  0
 18 35  1  0
 18 37  1  0
 18 38  1  0
 19 22  1  0
 21 39  1  0
 23 35  1  0
 24 26  1  0
 25 28  1  0
 26 34  1  0
 27 28  1  0
 28 32  2  3
 29 32  1  0
 30 36  1  0
 33 36  1  0
M  END
$$$$
