
     RDKit          3D

 31 35  0  0  0  0  0  0  0  0999 V2000
  -13.2846  -27.1181   -0.3339 N   0  0  0  0  0  0  0  0  0  0  0  0
  -16.3135  -28.1778    1.3252 C   0  0  0  0  0  0  0  0  0  0  0  0
  -15.0502  -26.2459   -2.0594 C   0  0  0  0  0  0  0  0  0  0  0  0
  -15.2614  -25.8775   -0.6382 C   0  0  0  0  0  0  0  0  0  0  0  0
  -16.6941  -30.3600    0.7602 N   0  0  0  0  0  0  0  0  0  0  0  0
  -11.3200  -24.1664    0.5623 C   0  0  0  0  0  0  0  0  0  0  0  0
  -15.7759  -30.2369   -0.1218 C   0  0  0  0  0  0  0  0  0  0  0  0
   -7.6873  -26.1075   -0.9348 C   0  0  0  0  0  0  0  0  0  0  0  0
  -18.1657  -29.4514    2.4488 Cl  0  0  0  0  0  0  0  0  0  0  0  0
   -8.8360  -26.5920   -0.2928 O   0  0  0  0  0  0  0  0  0  0  0  0
  -12.2669  -26.2512   -0.1952 C   0  0  0  0  0  0  0  0  0  0  0  0
  -15.1294  -29.1139   -0.3627 C   0  0  0  0  0  0  0  0  0  0  0  0
  -14.0344  -27.1748   -2.4908 C   0  0  0  0  0  0  0  0  0  0  0  0
  -15.0271  -27.6747   -4.5171 N   0  0  0  0  0  0  0  0  0  0  0  0
  -11.0183  -26.7683   -0.4218 C   0  0  0  0  0  0  0  0  0  0  0  0
  -15.3546  -28.0787    0.4037 C   0  0  0  0  0  0  0  0  0  0  0  0
  -12.0348  -28.2101   -1.9092 C   0  0  0  0  0  0  0  0  0  0  0  0
  -16.9538  -29.3066    1.4258 C   0  0  0  0  0  0  0  0  0  0  0  0
  -12.0595  -28.9713   -3.0393 C   0  0  0  0  0  0  0  0  0  0  0  0
  -13.1106  -27.4306   -1.5749 C   0  0  0  0  0  0  0  0  0  0  0  0
   -6.6559  -27.1907   -0.8624 C   0  0  0  0  0  0  0  0  0  0  0  0
  -13.1139  -28.7697   -3.9309 C   0  0  0  0  0  0  0  0  0  0  0  0
  -15.7452  -25.7423   -2.7590 O   0  0  0  0  0  0  0  0  0  0  0  0
   -7.8921  -25.5381   -2.2761 C   0  0  0  0  0  0  0  0  0  0  0  0
  -14.6337  -26.8740    0.1184 C   0  0  1  0  0  0  0  0  0  0  0  0
  -14.1069  -27.8696   -3.6549 C   0  0  0  0  0  0  0  0  0  0  0  0
  -12.4422  -24.9676    0.3295 C   0  0  0  0  0  0  0  0  0  0  0  0
   -9.7765  -28.3776   -1.6534 O   0  0  0  0  0  0  0  0  0  0  0  0
   -9.9626  -25.9570   -0.1589 C   0  0  0  0  0  0  0  0  0  0  0  0
  -10.0849  -24.6882    0.3549 C   0  0  0  0  0  0  0  0  0  0  0  0
  -10.9676  -28.1158   -1.0156 C   0  0  1  0  0  0  0  0  0  0  0  0
  1 11  1  0
  1 20  1  0
  1 25  1  0
  2 16  2  0
  2 18  1  0
  3  4  1  0
  3 13  1  0
  3 23  2  0
  4 25  1  0
  5  7  1  0
  5 18  2  0
  6 27  1  0
  6 30  2  0
  7 12  2  0
  8 10  1  0
  8 21  1  0
  8 24  1  0
  9 18  1  0
 10 29  1  0
 11 15  1  0
 11 27  2  0
 12 16  1  0
 13 20  1  0
 13 26  2  0
 14 26  1  0
 15 29  2  0
 15 31  1  0
 25 16  1  6
 17 19  1  0
 17 20  2  0
 17 31  1  0
 19 22  2  0
 22 26  1  0
 31 28  1  6
 29 30  1  0
M  END
