
     RDKit          3D

 11 11  0  0  0  0  0  0  0  0999 V2000
   35.5136   54.8247   32.2699 C   0  0  0  0  0  0  0  0  0  0  0  0
   34.7609   57.9482   32.5150 C   0  0  0  0  0  0  0  0  0  0  0  0
   36.3277   52.3670   31.9475 C   0  0  0  0  0  0  0  0  0  0  0  0
   34.3296   55.2661   33.2097 C   0  0  0  0  0  0  0  0  0  0  0  0
   35.9206   53.4955   32.7705 N   0  0  0  0  0  0  0  0  0  0  0  0
   34.2952   59.3944   32.6262 C   0  0  0  0  0  0  0  0  0  0  0  0
   37.3107   51.7342   32.6176 O   0  0  0  0  0  0  0  0  0  0  0  0
   32.5924   58.8254   34.4476 C   0  0  0  0  0  0  0  0  0  0  0  0
   33.0243   57.4124   34.2382 C   0  0  0  0  0  0  0  0  0  0  0  0
   33.2542   59.8211   33.5971 C   0  0  0  0  0  0  0  0  0  0  0  0
   34.0662   56.9170   33.2979 C   0  0  0  0  0  0  0  0  0  0  0  0
  1  4  1  0
  1  5  1  0
  2  6  1  0
  2 11  2  0
  3  5  1  0
  3  7  2  0
  4 11  1  0
  6 10  2  0
  8  9  2  0
  8 10  1  0
  9 11  1  0
M  END
$$$$
