
     RDKit          3D

 38 42  0  0  0  0  0  0  0  0999 V2000
   40.0182   45.9993   17.8447 C   0  0  0  0  0  0  0  0  0  0  0  0
   36.6715   44.9916   16.0427 O   0  0  0  0  0  0  0  0  0  0  0  0
   36.6163   43.5670   19.3670 O   0  0  0  0  0  0  0  0  0  0  0  0
   27.8196   40.7869   17.7302 O   0  0  0  0  0  0  0  0  0  0  0  0
   25.9822   38.7258   21.0710 C   0  0  0  0  0  0  0  0  0  0  0  0
   31.3337   41.6981   18.6157 C   0  0  0  0  0  0  0  0  0  0  0  0
   33.6836   43.3843   19.7120 N   0  0  0  0  0  0  0  0  0  0  0  0
   27.4964   36.9804   21.4923 C   0  0  0  0  0  0  0  0  0  0  0  0
   39.7660   46.6260   16.6528 C   0  0  0  0  0  0  0  0  0  0  0  0
   34.0659   43.1647   18.4272 C   0  0  0  0  0  0  0  0  0  0  0  0
   31.0732   42.3623   16.2227 C   0  0  0  0  0  0  0  0  0  0  0  0
   42.3416   46.6949   18.3761 N   0  0  0  0  0  0  0  0  0  0  0  0
   36.5743   44.0414   18.3030 C   0  0  0  0  0  0  0  0  0  0  0  0
   41.3107   45.4487   19.5070 O   0  0  0  0  0  0  0  0  0  0  0  0
   29.3325   39.3552   19.7902 C   0  0  0  0  0  0  0  0  0  0  0  0
   34.5257   44.4302   16.6484 C   0  0  0  0  0  0  0  0  0  0  0  0
   38.0225   47.0785   14.8119 C   0  0  0  0  0  0  0  0  0  0  0  0
   33.1933   44.2012   16.4581 C   0  0  0  0  0  0  0  0  0  0  0  0
   38.5629   46.3855   15.9969 C   0  0  0  0  0  0  0  0  0  0  0  0
   28.5085   41.6424   18.3886 C   0  0  0  0  0  0  0  0  0  0  0  0
   37.9863   44.7948   17.7727 C   0  0  0  0  0  0  0  0  0  0  0  0
   32.9639   43.0122   17.3928 C   0  0  0  0  0  0  0  0  0  0  0  0
   31.4459   42.8202   17.6467 C   0  0  0  0  0  0  0  0  0  0  0  0
   37.4044   46.5289   13.7025 C   0  0  0  0  0  0  0  0  0  0  0  0
   35.0982   43.9459   17.8873 C   0  0  0  0  0  0  0  0  0  0  0  0
   37.7606   45.4479   16.6015 C   0  0  0  0  0  0  0  0  0  0  0  0
   29.9264   41.1373   18.8244 C   0  0  0  0  0  0  0  0  0  0  0  0
   41.2650   46.1496   18.6069 C   0  0  0  0  0  0  0  0  0  0  0  0
   32.1185   40.4402   18.3824 C   0  0  0  0  0  0  0  0  0  0  0  0
   39.2043   45.1002   18.4237 C   0  0  0  0  0  0  0  0  0  0  0  0
   28.5356   37.5618   20.9517 C   0  0  0  0  0  0  0  0  0  0  0  0
   28.2603   38.7592   20.4068 C   0  0  0  0  0  0  0  0  0  0  0  0
   35.3165   45.5054   16.0549 C   0  0  0  0  0  0  0  0  0  0  0  0
   28.2219   43.1473   18.6587 C   0  0  0  0  0  0  0  0  0  0  0  0
   29.9462   39.8034   19.1920 N   0  0  0  0  0  0  0  0  0  0  0  0
   30.9823   39.4425   18.1098 C   0  0  0  0  0  0  0  0  0  0  0  0
   27.1079   39.3784   20.6720 C   0  0  0  0  0  0  0  0  0  0  0  0
   26.1994   37.5736   21.6939 C   0  0  0  0  0  0  0  0  0  0  0  0
  1  9  2  0
  1 28  1  0
  1 30  1  0
  2 26  1  0
  2 33  1  0
  3 13  2  0
  4 20  2  0
  5 37  1  0
  5 38  2  0
  6 23  1  0
  6 27  1  0
  6 29  1  0
  7 10  1  0
  8 31  2  0
  8 38  1  0
  9 19  1  0
 10 22  1  0
 10 25  1  0
 11 23  1  0
 12 28  1  0
 13 21  1  0
 13 25  2  0
 14 28  2  0
 15 32  1  0
 15 35  1  0
 16 18  1  0
 16 25  1  0
 16 33  1  0
 17 19  1  0
 17 24  2  0
 18 22  1  0
 19 26  2  0
 20 27  1  0
 20 34  1  0
 21 26  1  0
 21 30  2  0
 22 23  1  0
 27 35  1  0
 29 36  1  0
 31 32  1  0
 32 37  2  0
 35 36  1  0
M  END
$$$$
