
     RDKit          3D

  8  7  0  0  0  0  0  0  0  0999 V2000
  132.1839   52.3682   33.1152 C   0  0  0  0  0  0  0  0  0  0  0  0
  133.4040   53.1847   33.0317 C   0  0  0  0  0  0  0  0  0  0  0  0
  130.9745   52.6568   32.4376 C   0  0  0  0  0  0  0  0  0  0  0  0
  130.1141   51.7290   33.0460 O   0  0  0  0  0  0  0  0  0  0  0  0
  129.0331   51.4994   32.2375 C   0  0  0  0  0  0  0  0  0  0  0  0
  135.7516   52.5324   33.3289 C   0  0  0  0  0  0  0  0  0  0  0  0
  135.9629   53.0850   32.2728 O   0  0  0  0  0  0  0  0  0  0  0  0
  134.4794   52.7018   33.8903 N   0  0  0  0  0  0  0  0  0  0  0  0
  1  2  1  0
  1  3  1  0
  2  8  1  0
  3  4  1  0
  4  5  1  0
  6  7  2  0
  6  8  1  0
M  END
$$$$
