
     RDKit          3D

  5  5  0  0  0  0  0  0  0  0999 V2000
  132.9765   52.7520   32.9892 C   0  0  0  0  0  0  0  0  0  0  0  0
  129.2333   51.7267   32.3283 C   0  0  0  0  0  0  0  0  0  0  0  0
  129.7072   51.2075   32.1737 O   0  0  0  0  0  0  0  0  0  0  0  0
  131.5595   52.7141   32.4292 C   0  0  0  0  0  0  0  0  0  0  0  0
  130.5752   51.6841   32.9485 C   0  0  0  0  0  0  0  0  0  0  0  0
  1  4  1  0
  2  3  1  0
  2  5  1  0
  3  5  1  0
  4  5  1  0
M  END
$$$$
