
     RDKit          3D

  6  5  0  0  0  0  0  0  0  0999 V2000
  134.0042   52.2443   33.3423 O   0  0  0  0  0  0  0  0  0  0  0  0
  130.6820   52.8808   32.0591 O   0  0  0  0  0  0  0  0  0  0  0  0
  131.5404   52.2047   32.9396 C   0  0  0  0  0  0  0  0  0  0  0  0
  129.4125   52.3101   31.8526 C   0  0  0  0  0  0  0  0  0  0  0  0
  132.7903   52.9638   33.1422 C   0  0  0  0  0  0  0  0  0  0  0  0
  129.1966   51.0197   32.5631 C   0  0  0  0  0  0  0  0  0  0  0  0
  1  5  1  0
  2  3  1  0
  2  4  1  0
  3  5  1  0
  4  6  1  0
M  END
$$$$
