
     RDKit          3D

 15 15  0  0  0  0  0  0  0  0999 V2000
  131.5715   53.0089   33.1678 C   0  0  0  0  0  0  0  0  0  0  0  0
  129.5204   52.1295   31.4022 F   0  0  0  0  0  0  0  0  0  0  0  0
  129.0132   51.9249   33.2779 F   0  0  0  0  0  0  0  0  0  0  0  0
  131.0853   51.6522   32.9191 C   0  0  0  0  0  0  0  0  0  0  0  0
  136.3952   50.3274   32.5457 N   0  0  0  0  0  0  0  0  0  0  0  0
  135.4952   54.3696   34.5237 N   0  0  0  0  0  0  0  0  0  0  0  0
  135.5866   51.0258   33.5477 O   0  0  0  0  0  0  0  0  0  0  0  0
  133.8402   53.0381   34.1312 N   0  0  0  0  0  0  0  0  0  0  0  0
  129.3926   50.2129   32.4389 F   0  0  0  0  0  0  0  0  0  0  0  0
  129.6915   51.4518   32.3922 C   0  0  0  0  0  0  0  0  0  0  0  0
  135.0588   53.2915   34.0345 C   0  0  0  0  0  0  0  0  0  0  0  0
  135.7739   52.3626   33.2990 C   0  0  0  0  0  0  0  0  0  0  0  0
  136.9656   51.1958   31.7869 C   0  0  0  0  0  0  0  0  0  0  0  0
  133.0327   52.7686   33.0613 C   0  0  0  0  0  0  0  0  0  0  0  0
  136.5692   52.5246   32.2550 C   0  0  0  0  0  0  0  0  0  0  0  0
  1  4  1  0
  1 14  1  0
  2 10  1  0
  3 10  1  0
  4 10  1  0
  5  7  1  0
  5 13  2  0
  6 11  2  0
  7 12  1  0
  8 11  1  0
  8 14  1  0
  9 10  1  0
 11 12  1  0
 12 15  2  0
 13 15  1  0
M  END
$$$$
