
     RDKit          3D

  9  8  0  0  0  0  0  0  0  0999 V2000
   16.4971   57.2851   81.3152 O   0  0  0  0  0  0  0  0  0  0  0  0
   11.4742   57.4670   80.2041 O   0  0  0  0  0  0  0  0  0  0  0  0
   14.1353   57.9637   80.1145 C   0  0  0  0  0  0  0  0  0  0  0  0
   15.4819   57.1286   81.9763 C   0  0  0  0  0  0  0  0  0  0  0  0
   14.2497   57.4549   81.4844 N   0  0  0  0  0  0  0  0  0  0  0  0
   15.5619   56.5427   83.3480 C   0  0  0  0  0  0  0  0  0  0  0  0
   12.2652   59.6195   81.1139 O   0  0  0  0  0  0  0  0  0  0  0  0
   12.2843   59.2643   78.6421 O   0  0  0  0  0  0  0  0  0  0  0  0
   12.4565   58.6525   79.9864 P   0  0  0  0  0  0  0  0  0  0  0  0
  1  4  2  0
  2  9  2  0
  3  5  1  0
  3  9  1  0
  4  5  1  0
  4  6  1  0
  7  9  1  0
  8  9  1  0
M  END
$$$$
