
     RDKit          3D

 17 17  0  0  0  0  0  0  0  0999 V2000
    3.8751   -6.3190    8.7283 O   0  0  0  0  0  0  0  0  0  0  0  0
    3.8286   -7.6812    9.1041 C   0  0  0  0  0  0  0  0  0  0  0  0
    2.3882   -8.1902    9.3566 C   0  0  0  0  0  0  0  0  0  0  0  0
    4.7755   -9.1624   10.9473 C   0  0  0  0  0  0  0  0  0  0  0  0
    1.2522  -10.3144    9.6728 O   0  0  0  0  0  0  0  0  0  0  0  0
    3.7405  -11.2664   10.8389 O   0  0  0  0  0  0  0  0  0  0  0  0
    5.3406   -9.1510   12.3131 O   0  0  0  0  0  0  0  0  0  0  0  0
    1.4408   -7.8293    8.3147 O   0  0  0  0  0  0  0  0  0  0  0  0
    5.9826   -7.2503   10.2414 O   0  0  0  0  0  0  0  0  0  0  0  0
    4.5692  -13.3017   11.9225 O   0  0  0  0  0  0  0  0  0  0  0  0
    3.3964   -9.8846   10.7789 C   0  0  0  0  0  0  0  0  0  0  0  0
    2.5263   -9.6949    9.5273 C   0  0  0  0  0  0  0  0  0  0  0  0
    1.8788   -8.6107    7.0676 O   0  0  0  0  0  0  0  0  0  0  0  0
    3.3763  -11.5294   13.2810 O   0  0  0  0  0  0  0  0  0  0  0  0
    4.7069   -7.8117   10.3748 C   0  0  0  0  0  0  0  0  0  0  0  0
    2.0574  -12.9232   11.6565 O   0  0  0  0  0  0  0  0  0  0  0  0
    3.3901  -12.3200   12.0155 P   0  0  0  0  0  0  0  0  0  0  0  0
  1  2  1  0
  2  3  1  0
  2 15  1  0
  3  8  1  0
  3 12  1  0
  4  7  1  0
  4 11  1  0
  4 15  1  0
  5 12  1  0
  6 11  1  0
  6 17  1  0
  8 13  1  0
  9 15  1  0
 10 17  1  0
 11 12  1  0
 14 17  1  0
 16 17  2  0
M  END
$$$$
