
     RDKit          3D

 17 17  0  0  0  0  0  0  0  0999 V2000
    2.8847  -11.3424   10.4180 O   0  0  0  0  0  0  0  0  0  0  0  0
    3.3695   -6.3193    8.9958 O   0  0  0  0  0  0  0  0  0  0  0  0
    1.8513   -8.1973    9.1759 C   0  0  0  0  0  0  0  0  0  0  0  0
    5.1343  -12.1171    9.6150 O   0  0  0  0  0  0  0  0  0  0  0  0
    3.8933   -7.9273   10.5587 C   0  0  0  0  0  0  0  0  0  0  0  0
    5.2084   -7.3945   10.5901 O   0  0  0  0  0  0  0  0  0  0  0  0
    3.8637   -9.3854   10.8736 C   0  0  0  0  0  0  0  0  0  0  0  0
    4.0658   -9.5701   12.2613 O   0  0  0  0  0  0  0  0  0  0  0  0
    3.5894  -13.8899   10.3976 O   0  0  0  0  0  0  0  0  0  0  0  0
    4.8360  -12.3977   12.0017 O   0  0  0  0  0  0  0  0  0  0  0  0
    2.5255   -9.9558   10.5635 C   0  0  0  0  0  0  0  0  0  0  0  0
    1.6782   -8.9084    6.9398 O   0  0  0  0  0  0  0  0  0  0  0  0
    4.0186  -12.4472   10.6625 P   0  0  0  0  0  0  0  0  0  0  0  0
    1.8246   -9.5587    9.4086 O   0  0  0  0  0  0  0  0  0  0  0  0
    6.1417   -7.8108   11.5111 O   0  0  0  0  0  0  0  0  0  0  0  0
    3.2998   -7.7334    9.1816 C   0  0  0  0  0  0  0  0  0  0  0  0
    1.1078   -8.0145    7.9363 C   0  0  0  0  0  0  0  0  0  0  0  0
  1 11  1  0
  1 13  1  0
  2 16  1  0
  3 14  1  0
  3 16  1  0
  3 17  1  0
  4 13  1  0
  5  6  1  0
  5  7  1  0
  5 16  1  0
  6 15  1  0
  7  8  1  0
  7 11  1  0
  9 13  1  0
 10 13  2  0
 11 14  1  0
 12 17  1  0
M  END
$$$$
