
     RDKit          3D

 16 16  0  0  0  0  0  0  0  0999 V2000
    0.9382   -8.0329    7.4586 O   0  0  0  0  0  0  0  0  0  0  0  0
    5.6756   -8.4163   12.0812 O   0  0  0  0  0  0  0  0  0  0  0  0
    2.7690   -6.3367    9.1589 O   0  0  0  0  0  0  0  0  0  0  0  0
    4.4179   -7.6132   10.4633 O   0  0  0  0  0  0  0  0  0  0  0  0
    2.2135   -7.5795    9.5233 C   0  0  0  0  0  0  0  0  0  0  0  0
    2.4078  -10.6015    7.6663 O   0  0  0  0  0  0  0  0  0  0  0  0
    3.1806   -8.3691   10.4671 C   0  0  0  0  0  0  0  0  0  0  0  0
    5.2801  -11.8135   10.2616 O   0  0  0  0  0  0  0  0  0  0  0  0
    4.6180  -11.2400   12.6399 O   0  0  0  0  0  0  0  0  0  0  0  0
    5.6352   -8.3025   10.6069 C   0  0  0  0  0  0  0  0  0  0  0  0
    3.5164  -13.2214   11.4626 O   0  0  0  0  0  0  0  0  0  0  0  0
    2.0897   -9.7566    8.7790 C   0  0  0  0  0  0  0  0  0  0  0  0
    2.9115  -10.7772   10.7894 O   0  0  0  0  0  0  0  0  0  0  0  0
    3.1811   -9.7455    9.8274 C   0  0  0  0  0  0  0  0  0  0  0  0
    4.0996  -11.8155   11.3587 P   0  0  0  0  0  0  0  0  0  0  0  0
    2.0648   -8.3822    8.2574 C   0  0  0  0  0  0  0  0  0  0  0  0
  1 16  1  0
  2 10  1  0
  3  5  1  0
  4  7  1  0
  4 10  1  0
  5  7  1  0
  5 16  1  0
  6 12  1  0
  7 14  1  0
  8 15  1  0
  9 15  2  0
 11 15  1  0
 12 14  1  0
 12 16  1  0
 13 14  1  0
 13 15  1  0
M  END
$$$$
