
     RDKit          3D

 28 30  0  0  0  0  0  0  0  0999 V2000
    3.4934  -13.1106   12.0513 N   0  0  0  0  0  0  0  0  0  0  0  0
    3.9418  -12.4303   10.0273 C   0  0  0  0  0  0  0  0  0  0  0  0
    2.3406   -6.1598    9.4501 O   0  0  0  0  0  0  0  0  0  0  0  0
    3.4524   -9.3093   11.5107 C   0  0  0  0  0  0  0  0  0  0  0  0
    6.0721   -9.3098    9.6173 O   0  0  0  0  0  0  0  0  0  0  0  0
    2.4991   -9.5594    9.2143 O   0  0  0  0  0  0  0  0  0  0  0  0
    0.6611   -7.7794    8.4051 C   0  0  0  0  0  0  0  0  0  0  0  0
    5.1387   -7.0259    9.0312 O   0  0  0  0  0  0  0  0  0  0  0  0
    2.2013   -7.3134    8.6171 C   0  0  0  0  0  0  0  0  0  0  0  0
    4.3244  -12.3062    8.6308 C   0  0  0  0  0  0  0  0  0  0  0  0
    4.3804  -14.7660   10.4388 N   0  0  0  0  0  0  0  0  0  0  0  0
    2.1710   -8.4340    9.9951 C   0  0  0  0  0  0  0  0  0  0  0  0
    3.9891   -8.0649   11.2651 O   0  0  0  0  0  0  0  0  0  0  0  0
    1.2463  -10.0922    8.8739 C   0  0  0  0  0  0  0  0  0  0  0  0
    1.7026   -9.0729    6.7044 O   0  0  0  0  0  0  0  0  0  0  0  0
    3.4335  -11.3307   10.6815 N   0  0  0  0  0  0  0  0  0  0  0  0
    5.4642   -7.9766   10.1056 P   0  0  0  0  0  0  0  0  0  0  0  0
    1.3997   -9.3056   11.8878 O   0  0  0  0  0  0  0  0  0  0  0  0
    3.9503  -13.4640   10.7867 C   0  0  0  0  0  0  0  0  0  0  0  0
    4.1822  -11.1376    7.9657 N   0  0  0  0  0  0  0  0  0  0  0  0
    6.4242   -7.5068   11.1475 O   0  0  0  0  0  0  0  0  0  0  0  0
    2.9020  -10.9095   12.8743 C   0  0  0  0  0  0  0  0  0  0  0  0
    3.3039  -10.0558   10.2193 C   0  0  0  0  0  0  0  0  0  0  0  0
    0.8791   -9.0436    7.7915 C   0  0  0  0  0  0  0  0  0  0  0  0
    4.5969  -13.1628    7.9483 O   0  0  0  0  0  0  0  0  0  0  0  0
    2.7266   -9.5393   12.5433 C   0  0  0  0  0  0  0  0  0  0  0  0
    3.1871  -11.7913   11.8528 C   0  0  0  0  0  0  0  0  0  0  0  0
    0.3273   -6.7596    7.5231 O   0  0  0  0  0  0  0  0  0  0  0  0
  1 19  1  0
  1 27  2  0
  2 10  1  0
  2 16  1  0
  2 19  2  0
  3  9  1  0
  4 13  1  0
  4 23  1  0
  4 26  1  0
  5 17  2  0
  6 12  1  0
  6 14  1  0
  6 23  1  0
  7  9  1  0
  7 24  1  0
  7 28  1  0
  8 17  1  0
  9 12  1  0
 10 20  1  0
 10 25  2  0
 11 19  1  0
 13 17  1  0
 14 24  1  0
 15 24  1  0
 16 23  1  0
 16 27  1  0
 17 21  1  0
 18 26  1  0
 22 26  1  0
 22 27  1  0
M  END
$$$$
