
     RDKit          3D

 16 16  0  0  0  0  0  0  0  0999 V2000
    4.5993   -8.6245   10.7979 C   0  0  0  0  0  0  0  0  0  0  0  0
    5.2357  -12.1603   11.1351 O   0  0  0  0  0  0  0  0  0  0  0  0
    3.2253  -10.9448   10.0868 O   0  0  0  0  0  0  0  0  0  0  0  0
    3.0781  -13.4531   10.9598 O   0  0  0  0  0  0  0  0  0  0  0  0
    3.1370   -8.4992   10.5342 C   0  0  0  0  0  0  0  0  0  0  0  0
    2.3671   -9.8311   10.4454 C   0  0  0  0  0  0  0  0  0  0  0  0
    1.1625   -8.0540    7.4162 O   0  0  0  0  0  0  0  0  0  0  0  0
    1.3289   -9.5791    9.3665 C   0  0  0  0  0  0  0  0  0  0  0  0
    1.4534   -8.1821    8.8516 C   0  0  0  0  0  0  0  0  0  0  0  0
    3.2094  -11.4745   12.5423 O   0  0  0  0  0  0  0  0  0  0  0  0
    3.7146  -12.0828   11.2629 P   0  0  0  0  0  0  0  0  0  0  0  0
    5.5540   -8.0640   10.0210 O   0  0  0  0  0  0  0  0  0  0  0  0
    1.4334  -10.5118    8.3486 O   0  0  0  0  0  0  0  0  0  0  0  0
    2.8387   -7.7443    9.2664 C   0  0  0  0  0  0  0  0  0  0  0  0
    5.0926   -9.0793   11.8768 O   0  0  0  0  0  0  0  0  0  0  0  0
    3.0021   -6.3191    9.2510 O   0  0  0  0  0  0  0  0  0  0  0  0
  1  5  1  0
  1 12  2  0
  1 15  1  0
  2 11  1  0
  3  6  1  0
  3 11  1  0
  4 11  1  0
  5  6  1  0
  5 14  1  0
  6  8  1  0
  7  9  1  0
  8  9  1  0
  8 13  1  0
  9 14  1  0
 10 11  2  0
 14 16  1  0
M  END
$$$$
