
     RDKit          3D

 16 16  0  0  0  0  0  0  0  0999 V2000
    4.5393  -11.3772   12.6500 O   0  0  0  0  0  0  0  0  0  0  0  0
    5.5637   -7.9184   10.4926 C   0  0  0  0  0  0  0  0  0  0  0  0
    2.3985  -11.2588   11.2893 O   0  0  0  0  0  0  0  0  0  0  0  0
    2.5817   -9.9642   10.7069 C   0  0  0  0  0  0  0  0  0  0  0  0
    3.3972   -7.8485    9.1791 C   0  0  0  0  0  0  0  0  0  0  0  0
    1.6239   -8.0315    7.6108 O   0  0  0  0  0  0  0  0  0  0  0  0
    3.9013   -9.5256   10.8044 O   0  0  0  0  0  0  0  0  0  0  0  0
    4.4687  -12.3689   10.2523 O   0  0  0  0  0  0  0  0  0  0  0  0
    1.8645   -9.6316    9.4613 C   0  0  0  0  0  0  0  0  0  0  0  0
    6.2419   -8.1258   11.7285 O   0  0  0  0  0  0  0  0  0  0  0  0
    3.4523   -6.4148    8.9630 O   0  0  0  0  0  0  0  0  0  0  0  0
    2.3447  -10.4842    8.5829 O   0  0  0  0  0  0  0  0  0  0  0  0
    3.7381  -12.1737   11.6043 P   0  0  0  0  0  0  0  0  0  0  0  0
    3.3123  -13.4553   12.0483 O   0  0  0  0  0  0  0  0  0  0  0  0
    4.0830   -8.1473   10.4918 C   0  0  0  0  0  0  0  0  0  0  0  0
    2.0233   -8.2879    8.9487 C   0  0  0  0  0  0  0  0  0  0  0  0
  1 13  1  0
  2 10  1  0
  2 15  1  0
  3  4  1  0
  3 13  1  0
  4  7  1  0
  4  9  1  0
  5 11  1  0
  5 15  1  0
  5 16  1  0
  6 16  1  0
  7 15  1  0
  8 13  2  0
  9 12  1  0
  9 16  1  0
 13 14  1  0
M  END
$$$$
