
     RDKit          3D

 31 34  0  0  0  0  0  0  0  0999 V2000
  -18.9134   -9.7178   14.8521 O   0  0  0  0  0  0  0  0  0  0  0  0
  -19.7892  -13.0476    7.5077 C   0  0  0  0  0  0  0  0  0  0  0  0
  -21.1889  -13.2441    5.5680 C   0  0  0  0  0  0  0  0  0  0  0  0
  -21.0592  -10.4858    9.7966 C   0  0  0  0  0  0  0  0  0  0  0  0
  -21.8435  -11.8139    7.3898 C   0  0  0  0  0  0  0  0  0  0  0  0
  -17.9810   -9.4013   13.7517 S   0  0  0  0  0  0  0  0  0  0  0  0
  -20.3096   -9.4338   10.5670 C   0  0  0  0  0  0  0  0  0  0  0  0
  -15.7213   -6.6270   15.3999 C   0  0  0  0  0  0  0  0  0  0  0  0
  -17.0937   -7.9545   14.0295 C   0  0  0  0  0  0  0  0  0  0  0  0
  -15.6932   -5.6545   14.4482 C   0  0  0  0  0  0  0  0  0  0  0  0
  -18.6287  -13.3928    8.2136 C   0  0  0  0  0  0  0  0  0  0  0  0
  -21.3595   -8.0838   12.3244 C   0  0  0  0  0  0  0  0  0  0  0  0
  -17.7088  -14.2436    7.5988 N   0  0  0  0  0  0  0  0  0  0  0  0
  -22.0451   -9.1862   13.0707 C   0  0  0  0  0  0  0  0  0  0  0  0
  -21.1910   -8.3610   10.8880 O   0  0  0  0  0  0  0  0  0  0  0  0
  -20.0396  -13.5840    6.2340 C   0  0  0  0  0  0  0  0  0  0  0  0
  -18.4609  -12.9304    9.4772 C   0  0  0  0  0  0  0  0  0  0  0  0
  -17.1626  -10.4759   13.3226 O   0  0  0  0  0  0  0  0  0  0  0  0
  -20.4977  -11.6539    9.3787 N   0  0  0  0  0  0  0  0  0  0  0  0
  -22.2408  -10.2318    9.5503 O   0  0  0  0  0  0  0  0  0  0  0  0
  -22.6736  -10.1319   12.5342 O   0  0  0  0  0  0  0  0  0  0  0  0
  -19.5286   -9.9195   11.6932 C   0  0  0  0  0  0  0  0  0  0  0  0
  -21.9481   -9.0486   14.3826 O   0  0  0  0  0  0  0  0  0  0  0  0
  -16.3580   -5.8454   13.2402 C   0  0  0  0  0  0  0  0  0  0  0  0
  -19.5364  -12.3967   10.1732 C   0  0  0  0  0  0  0  0  0  0  0  0
  -16.4286   -7.8108   15.2445 C   0  0  0  0  0  0  0  0  0  0  0  0
  -19.9650   -7.8431   12.9182 C   0  0  0  0  0  0  0  0  0  0  0  0
  -18.9721   -8.8327   12.4750 N   0  0  0  0  0  0  0  0  0  0  0  0
  -22.0871  -12.3549    6.1380 C   0  0  0  0  0  0  0  0  0  0  0  0
  -17.0659   -7.0181   13.0241 C   0  0  0  0  0  0  0  0  0  0  0  0
  -20.6783  -12.1709    8.0790 C   0  0  0  0  0  0  0  0  0  0  0  0
  1  6  2  0
  2 11  1  0
  2 16  2  0
  2 31  1  0
  3 16  1  0
  3 29  2  0
  4  7  1  0
  4 19  1  0
  4 20  2  0
  5 29  1  0
  5 31  2  0
  6  9  1  0
  6 18  2  0
  6 28  1  0
  7 15  1  0
  7 22  1  0
  8 10  2  0
  8 26  1  0
  9 26  2  0
  9 30  1  0
 10 24  1  0
 11 13  1  0
 11 17  2  0
 12 14  1  0
 12 15  1  0
 12 27  1  0
 14 21  1  0
 14 23  2  0
 17 25  1  0
 19 25  1  0
 19 31  1  0
 22 28  1  0
 24 30  2  0
 27 28  1  0
M  END
$$$$
