
     RDKit          3D

  9  8  0  0  0  0  0  0  0  0999 V2000
   -0.5879    0.1455   -1.0092 C   0  0  0  0  0  0  0  0  0  0  0  0
    3.0326   -0.3080    0.2508 C   0  0  0  0  0  0  0  0  0  0  0  0
   -2.5039   -1.0418   -0.1257 C   0  0  0  0  0  0  0  0  0  0  0  0
   -1.8199    1.0205    0.9021 C   0  0  0  0  0  0  0  0  0  0  0  0
    0.8724    0.4961   -0.6859 C   0  0  0  0  0  0  0  0  0  0  0  0
   -1.3493   -0.1947    0.2140 N   0  0  0  0  0  0  0  0  0  0  0  0
    3.3877    0.3629    1.4167 O   0  0  0  0  0  0  0  0  0  0  0  0
    1.6010   -0.6638    0.0030 C   0  0  0  0  0  0  0  0  0  0  0  0
    3.9096   -0.5795   -0.6124 O   0  0  0  0  0  0  0  0  0  0  0  0
  1  5  1  0
  1  6  1  0
  2  7  1  0
  2  8  1  0
  2  9  2  0
  3  6  1  0
  4  6  1  0
  5  8  1  0
M  END
