
     RDKit          3D

  9  8  0  0  0  0  0  0  0  0999 V2000
    1.4400   -1.1350   -0.6975 C   0  0  0  0  0  0  0  0  0  0  0  0
    2.4200   -0.1879    0.0081 C   0  0  0  0  0  0  0  0  0  0  0  0
   -1.0442   -0.4157   -0.5265 N   0  0  0  0  0  0  0  0  0  0  0  0
    0.2296   -0.3964   -1.2135 C   0  0  0  0  0  0  0  0  0  0  0  0
   -1.7555    1.9318   -0.3342 C   0  0  0  0  0  0  0  0  0  0  0  0
   -2.0849    0.5544   -0.9000 C   0  0  0  0  0  0  0  0  0  0  0  0
    1.8717    0.3406    1.3325 C   0  0  0  0  0  0  0  0  0  0  0  0
   -1.3282   -1.4171    0.5077 C   0  0  0  0  0  0  0  0  0  0  0  0
    0.3621    0.2931   -2.2618 O   0  0  0  0  0  0  0  0  0  0  0  0
  1  2  1  0
  1  4  1  0
  2  7  1  0
  3  4  1  0
  3  6  1  0
  3  8  1  0
  4  9  2  0
  5  6  1  0
M  END
