
     RDKit          3D

 10  9  0  0  0  0  0  0  0  0999 V2000
    0.6908    1.0645    0.2992 C   0  0  0  0  0  0  0  0  0  0  0  0
    3.0200   -1.9064    0.0361 F   0  0  0  0  0  0  0  0  0  0  0  0
    1.6258   -0.5338    1.7665 O   0  0  0  0  0  0  0  0  0  0  0  0
   -1.4064   -0.2533   -0.3036 C   0  0  0  0  0  0  0  0  0  0  0  0
    1.5565   -0.1285    0.6154 C   0  0  0  0  0  0  0  0  0  0  0  0
    2.3687   -0.7915   -0.4626 C   0  0  0  0  0  0  0  0  0  0  0  0
    1.5411   -1.1832   -1.4984 F   0  0  0  0  0  0  0  0  0  0  0  0
   -0.7897    0.8080    0.6154 C   0  0  0  0  0  0  0  0  0  0  0  0
    3.3092    0.0998   -0.9445 F   0  0  0  0  0  0  0  0  0  0  0  0
   -2.8252   -0.4147   -0.0022 N   0  0  0  0  0  0  0  0  0  0  0  0
  1  5  1  0
  1  8  1  0
  2  6  1  0
  3  5  2  0
  4  8  1  0
  4 10  1  0
  5  6  1  0
  6  7  1  0
  6  9  1  0
M  END
