
     RDKit          3D

  5  5  0  0  0  0  0  0  0  0999 V2000
    1.6936   -0.1653    0.5912 C   0  0  0  0  0  0  0  0  0  0  0  0
   -1.9535    0.2016   -0.4919 C   0  0  0  0  0  0  0  0  0  0  0  0
   -1.4850    0.3753    0.8271 O   0  0  0  0  0  0  0  0  0  0  0  0
    0.4967   -0.5030   -0.2897 C   0  0  0  0  0  0  0  0  0  0  0  0
   -0.5580    0.6030   -0.2077 C   0  0  1  0  0  0  0  0  0  0  0  0
  1  4  1  0
  2  3  1  0
  2  5  1  0
  3  5  1  0
  5  4  1  1
M  END
