
     RDKit          3D

  7  7  0  0  0  0  0  0  0  0999 V2000
   -0.3264    0.7520   -0.0530 C   0  0  1  0  0  0  0  0  0  0  0  0
   -2.5735   -0.2494    0.6757 C   0  0  0  0  0  0  0  0  0  0  0  0
    0.9510    0.3635   -0.4969 O   0  0  0  0  0  0  0  0  0  0  0  0
   -1.2925    0.9489   -1.2137 C   0  0  0  0  0  0  0  0  0  0  0  0
   -1.4153   -0.2770   -0.3198 C   0  0  1  0  0  0  0  0  0  0  0  0
    1.6539   -0.1683    0.6023 C   0  0  0  0  0  0  0  0  0  0  0  0
    3.0227   -0.6417    0.1383 C   0  0  0  0  0  0  0  0  0  0  0  0
  1  3  1  6
  1  4  1  0
  1  5  1  0
  5  2  1  1
  3  6  1  0
  4  5  1  0
  6  7  1  0
M  END
