
     RDKit          3D

  9  9  0  0  0  0  0  0  0  0999 V2000
   -0.6822   -0.6213   -0.7934 C   0  0  0  0  0  0  0  0  0  0  0  0
   -2.1797   -0.5082   -0.5366 C   0  0  0  0  0  0  0  0  0  0  0  0
    2.3392   -0.6441   -0.2286 C   0  0  0  0  0  0  0  0  0  0  0  0
    4.7250    0.4049   -0.5383 N   0  0  0  0  0  0  0  0  0  0  0  0
   -2.3170    0.3414    0.7152 C   0  0  0  0  0  0  0  0  0  0  0  0
    3.6729   -0.0576   -0.4017 C   0  0  0  0  0  0  0  0  0  0  0  0
    0.0014   -0.1617    0.4227 N   0  0  0  0  0  0  0  0  0  0  0  0
    1.3222    0.4377    0.1473 C   0  0  0  0  0  0  0  0  0  0  0  0
   -0.9089    0.8105    1.0319 C   0  0  0  0  0  0  0  0  0  0  0  0
  1  2  1  0
  1  7  1  0
  2  5  1  0
  3  6  1  0
  3  8  1  0
  4  6  3  0
  5  9  1  0
  7  8  1  0
  7  9  1  0
M  END
