
     RDKit          3D

  9  9  0  0  0  0  0  0  0  0999 V2000
   -2.7756   -0.6195   -0.0850 C   0  0  0  0  0  0  0  0  0  0  0  0
   -0.6646    0.2988    0.5288 C   0  0  2  0  0  0  0  0  0  0  0  0
   -1.6293   -0.8300    0.8700 C   0  0  0  0  0  0  0  0  0  0  0  0
    3.4365    0.4748   -0.8137 C   0  0  0  0  0  0  0  0  0  0  0  0
   -0.8737    0.6460   -0.8809 N   0  0  0  0  0  0  0  0  0  0  0  0
    1.6316    1.0114    0.5121 O   0  0  0  0  0  0  0  0  0  0  0  0
    0.7939   -0.1019    0.7651 C   0  0  0  0  0  0  0  0  0  0  0  0
   -2.1342    0.0275   -1.3004 C   0  0  0  0  0  0  0  0  0  0  0  0
    2.9490    0.6269    0.5544 N   0  0  0  0  0  0  0  0  0  0  0  0
  1  3  1  0
  1  8  1  0
  2  3  1  0
  2  5  1  0
  2  7  1  6
  4  9  1  0
  5  8  1  0
  6  7  1  0
  6  9  1  0
M  END
