
     RDKit          3D

 12 11  0  0  0  0  0  0  0  0999 V2000
   47.3436   55.5679   -0.0392 C   0  0  0  0  0  0  0  0  0  0  0  0
   47.0481   51.0262   -2.0422 C   0  0  0  0  0  0  0  0  0  0  0  0
   47.3559   53.4118   -1.1345 C   0  0  1  0  0  0  0  0  0  0  0  0
   47.1558   51.4624    0.3649 C   0  0  2  0  0  0  0  0  0  0  0  0
   47.9182   51.8636   -0.8744 C   0  0  0  0  0  0  0  0  0  0  0  0
   48.0815   50.4151    0.7643 C   0  0  0  0  0  0  0  0  0  0  0  0
   49.3091   51.6573   -0.6857 C   0  0  0  0  0  0  0  0  0  0  0  0
   44.6950   51.3202    0.8474 N   0  0  0  0  0  0  0  0  0  0  0  0
   45.7846   50.8968   -0.0611 C   0  0  0  0  0  0  0  0  0  0  0  0
   47.1346   54.6346    0.0686 C   0  0  0  0  0  0  0  0  0  0  0  0
   46.3436   54.2237   -0.3049 C   0  0  0  0  0  0  0  0  0  0  0  0
   48.4748   53.9913   -0.4161 C   0  0  0  0  0  0  0  0  0  0  0  0
  1 10  1  0
  2  5  1  0
  3  5  1  0
  3 11  1  0
  3 12  1  1
  4  5  1  0
  4  6  1  6
  4  9  1  0
  5  7  1  0
  8  9  1  0
 10 11  1  0
M  END
