
     RDKit          3D

 16 17  0  0  0  0  0  0  0  0999 V2000
   -1.1394   -0.9922   -1.2747 C   0  0  0  0  0  0  0  0  0  0  0  0
   -0.1605   -0.7546    0.9533 C   0  0  0  0  0  0  0  0  0  0  0  0
    2.6363    0.1960    0.5742 O   0  0  0  0  0  0  0  0  0  0  0  0
    2.2736   -1.0392    0.3188 C   0  0  0  0  0  0  0  0  0  0  0  0
    3.9426    0.1496    0.6686 C   0  0  0  0  0  0  0  0  0  0  0  0
   -2.6086   -0.0991    0.6263 N   0  0  0  0  0  0  0  0  0  0  0  0
    3.3422   -1.8563    0.2496 N   0  0  0  0  0  0  0  0  0  0  0  0
    4.8064    1.3226    0.9819 C   0  0  0  0  0  0  0  0  0  0  0  0
   -3.8376   -0.3201   -0.1540 C   0  0  0  0  0  0  0  0  0  0  0  0
   -1.4845   -0.9899    0.2236 C   0  0  1  0  0  0  0  0  0  0  0  0
   -1.8474    2.1514   -0.2590 C   0  0  0  0  0  0  0  0  0  0  0  0
    0.8564   -1.4916    0.0882 C   0  0  2  0  0  0  0  0  0  0  0  0
   -2.3502    1.3290    0.9299 C   0  0  0  0  0  0  0  0  0  0  0  0
    4.4046   -1.1003    0.4786 N   0  0  0  0  0  0  0  0  0  0  0  0
    0.3655   -1.3081   -1.3632 C   0  0  2  0  0  0  0  0  0  0  0  0
    1.0572   -0.2904   -2.0491 O   0  0  0  0  0  0  0  0  0  0  0  0
  1 10  1  0
  1 15  1  0
  2 10  1  0
  2 12  1  0
  3  4  1  0
  3  5  1  0
  4  7  2  0
 12  4  1  6
  5  8  1  0
  5 14  2  0
  6  9  1  0
 10  6  1  6
  6 13  1  0
  7 14  1  0
 11 13  1  0
 12 15  1  0
 15 16  1  1
M  END
