
     RDKit          3D

 16 17  0  0  0  0  0  0  0  0999 V2000
    2.3457    0.1524   -0.8725 C   0  0  0  0  0  0  0  0  0  0  0  0
   -0.7416   -2.4698    0.5500 C   0  0  0  0  0  0  0  0  0  0  0  0
    1.5564   -2.0437   -0.0563 C   0  0  0  0  0  0  0  0  0  0  0  0
    0.5642   -2.9197    0.3783 C   0  0  0  0  0  0  0  0  0  0  0  0
   -4.0915    1.2585    0.3543 C   0  0  0  0  0  0  0  0  0  0  0  0
   -3.3968   -1.4651    0.6576 O   0  0  0  0  0  0  0  0  0  0  0  0
   -0.4244    1.2459   -0.3038 C   0  0  0  0  0  0  0  0  0  0  0  0
   -0.0562   -0.2129   -0.0845 C   0  0  0  0  0  0  0  0  0  0  0  0
    1.2611   -0.6960   -0.3236 C   0  0  0  0  0  0  0  0  0  0  0  0
    2.0856    1.0691   -1.6996 O   0  0  0  0  0  0  0  0  0  0  0  0
    4.7668    0.6505   -1.0113 C   0  0  0  0  0  0  0  0  0  0  0  0
    3.6718   -0.1058   -0.5088 O   0  0  0  0  0  0  0  0  0  0  0  0
   -1.0634   -1.1240    0.3192 C   0  0  0  0  0  0  0  0  0  0  0  0
   -1.5875    1.6896    0.5905 C   0  0  0  0  0  0  0  0  0  0  0  0
   -2.4517   -0.6448    0.4958 C   0  0  0  0  0  0  0  0  0  0  0  0
   -2.7169    0.7655    0.4615 N   0  0  0  0  0  0  0  0  0  0  0  0
  1  9  1  0
  1 10  2  0
  1 12  1  0
  2  4  1  0
  2 13  2  0
  3  4  2  0
  3  9  1  0
  5 16  1  0
  6 15  2  0
  7  8  1  0
  7 14  1  0
  8  9  2  0
  8 13  1  0
 11 12  1  0
 13 15  1  0
 14 16  1  0
 15 16  1  0
M  END
