
     RDKit          3D

 17 16  0  0  0  0  0  0  0  0999 V2000
   -3.5574   -2.1821    0.0543 C   0  0  0  0  0  0  0  0  0  0  0  0
   -4.0545   -0.8955    0.6558 C   0  0  0  0  0  0  0  0  0  0  0  0
   -0.0832    0.8656    1.7499 C   0  0  0  0  0  0  0  0  0  0  0  0
    4.3466   -0.8382    0.2050 C   0  0  0  0  0  0  0  0  0  0  0  0
    4.4529   -0.1420    1.4095 O   0  0  0  0  0  0  0  0  0  0  0  0
   -2.1998    0.7924    0.1958 C   0  0  2  0  0  0  0  0  0  0  0  0
   -3.0834    1.6822   -0.7186 C   0  0  0  0  0  0  0  0  0  0  0  0
    6.3522    0.3627   -0.6210 C   0  0  0  0  0  0  0  0  0  0  0  0
   -3.0728    0.0842    1.2642 C   0  0  0  0  0  0  0  0  0  0  0  0
    5.2307   -0.6158   -0.7750 C   0  0  0  0  0  0  0  0  0  0  0  0
   -2.3435    2.2046   -1.9527 C   0  0  0  0  0  0  0  0  0  0  0  0
    1.3934    0.0062   -0.1613 C   0  0  0  0  0  0  0  0  0  0  0  0
    3.2187   -1.8188    0.0076 C   0  0  0  0  0  0  0  0  0  0  0  0
   -1.0819    1.6418    0.8636 C   0  0  0  0  0  0  0  0  0  0  0  0
    0.5728   -0.3594    1.0873 C   0  0  0  0  0  0  0  0  0  0  0  0
   -5.3674   -0.6217    0.6345 C   0  0  0  0  0  0  0  0  0  0  0  0
    2.0628   -1.2187   -0.8110 C   0  0  0  0  0  0  0  0  0  0  0  0
  1  2  1  0
  2  9  1  0
  2 16  2  0
  3 14  1  0
  3 15  1  0
  4  5  1  0
  4 10  2  3
  4 13  1  0
  6  7  1  6
  6  9  1  0
  6 14  1  0
  7 11  1  0
  8 10  1  0
 12 15  1  0
 12 17  1  0
 13 17  1  0
M  END
