
     RDKit          3D

 18 20  0  0  0  0  0  0  0  0999 V2000
   -1.8939   -2.0842    0.6151 C   0  0  0  0  0  0  0  0  0  0  0  0
   -4.7558    2.0195   -0.7760 C   0  0  0  0  0  0  0  0  0  0  0  0
    3.8469    2.0124   -0.5497 C   0  0  0  0  0  0  0  0  0  0  0  0
    2.4882    1.4647   -0.4055 N   0  0  0  0  0  0  0  0  0  0  0  0
   -5.0067    0.9938    0.1375 C   0  0  0  0  0  0  0  0  0  0  0  0
   -0.3371   -0.3526    0.1108 N   0  0  0  0  0  0  0  0  0  0  0  0
   -2.7226    0.1849   -0.1259 C   0  0  0  0  0  0  0  0  0  0  0  0
    3.3005   -1.5475    0.5800 C   0  0  0  0  0  0  0  0  0  0  0  0
   -3.9982    0.0822    0.4654 C   0  0  0  0  0  0  0  0  0  0  0  0
    2.3083    0.7909    0.8905 C   0  0  0  0  0  0  0  0  0  0  0  0
   -1.6314   -0.7647    0.2127 C   0  0  0  0  0  0  0  0  0  0  0  0
    0.4833   -2.4777    0.8100 C   0  0  0  0  0  0  0  0  0  0  0  0
   -3.4936    2.1398   -1.3602 C   0  0  0  0  0  0  0  0  0  0  0  0
    2.1405   -0.5882    0.2452 C   0  0  0  0  0  0  0  0  0  0  0  0
    0.7288   -1.1557    0.3940 C   0  0  0  0  0  0  0  0  0  0  0  0
   -0.8305   -2.9339    0.9152 C   0  0  0  0  0  0  0  0  0  0  0  0
   -2.4808    1.2321   -1.0359 C   0  0  0  0  0  0  0  0  0  0  0  0
    2.3539    0.1605   -1.0741 C   0  0  0  0  0  0  0  0  0  0  0  0
  1 11  1  0
  1 16  2  0
  2  5  2  0
  2 13  1  0
  3  4  1  0
  4 10  1  0
  4 18  1  0
  5  9  1  0
  6 11  2  0
  6 15  1  0
  7  9  2  0
  7 11  1  0
  7 17  1  0
  8 14  1  0
 10 14  1  0
 12 15  2  0
 12 16  1  0
 13 17  2  0
 14 15  1  0
 14 18  1  0
M  END
