
     RDKit          3D

 18 20  0  0  0  0  0  0  0  0999 V2000
   -0.9712   -1.3559    0.0682 N   0  0  0  0  0  0  0  0  0  0  0  0
    4.1029   -1.6365    0.2653 O   0  0  0  0  0  0  0  0  0  0  0  0
   -1.3634    4.1914    0.2449 O   0  0  0  0  0  0  0  0  0  0  0  0
    1.4074    0.1745    0.5082 N   0  0  0  0  0  0  0  0  0  0  0  0
   -3.4283   -0.1553   -0.3239 C   0  0  0  0  0  0  0  0  0  0  0  0
   -0.0092    2.1825    0.3812 C   0  0  0  0  0  0  0  0  0  0  0  0
   -2.0633   -2.1382   -0.1450 C   0  0  0  0  0  0  0  0  0  0  0  0
    2.3957    0.8519    1.1524 O   0  0  0  0  0  0  0  0  0  0  0  0
   -1.9238   -3.5589   -0.1602 N   0  0  0  0  0  0  0  0  0  0  0  0
   -1.0415    0.0039    0.0885 C   0  0  0  0  0  0  0  0  0  0  0  0
   -2.2934    0.6351   -0.0999 C   0  0  0  0  0  0  0  0  0  0  0  0
   -3.3145   -1.5457   -0.3484 C   0  0  0  0  0  0  0  0  0  0  0  0
    0.1139    0.7833    0.3183 C   0  0  0  0  0  0  0  0  0  0  0  0
   -1.2506    2.8037    0.1926 C   0  0  0  0  0  0  0  0  0  0  0  0
    3.5109    0.7202    0.3065 C   0  0  0  0  0  0  0  0  0  0  0  0
    1.8938   -0.8838   -0.3599 C   0  0  0  0  0  0  0  0  0  0  0  0
   -2.3881    2.0316   -0.0511 C   0  0  0  0  0  0  0  0  0  0  0  0
    3.3842   -0.6284   -0.4046 C   0  0  2  0  0  0  0  0  0  0  0  0
  1  7  2  0
  1 10  1  0
 18  2  1  1
  3 14  1  0
  4  8  1  0
  4 13  1  0
  4 16  1  0
  5 11  1  0
  5 12  2  0
  6 13  1  0
  6 14  2  0
  7  9  1  0
  7 12  1  0
  8 15  1  0
 10 11  1  0
 10 13  2  0
 11 17  2  0
 14 17  1  0
 15 18  1  0
 16 18  1  0
M  END
