
     RDKit          3D

 20 22  0  0  0  0  0  0  0  0999 V2000
    1.6036    0.7761   -0.0762 C   0  0  0  0  0  0  0  0  0  0  0  0
    0.3744    1.5425   -0.3399 C   0  0  0  0  0  0  0  0  0  0  0  0
    0.1642   -1.2692    0.3697 C   0  0  1  0  0  0  0  0  0  0  0  0
   -1.3086   -2.8532   -0.9668 N   0  0  0  0  0  0  0  0  0  0  0  0
   -2.6034    2.2051   -1.4861 C   0  0  0  0  0  0  0  0  0  0  0  0
    4.0255    0.6872    0.1402 C   0  0  0  0  0  0  0  0  0  0  0  0
   -2.2324   -2.5881    0.1433 C   0  0  0  0  0  0  0  0  0  0  0  0
    0.0727   -2.3985   -0.6922 C   0  0  0  0  0  0  0  0  0  0  0  0
   -2.1982    1.8718   -0.0457 C   0  0  0  0  0  0  0  0  0  0  0  0
   -2.3948   -1.0738    0.3243 C   0  0  0  0  0  0  0  0  0  0  0  0
    3.9360   -0.6389    0.5709 C   0  0  0  0  0  0  0  0  0  0  0  0
    1.5112   -0.5690    0.3212 C   0  0  0  0  0  0  0  0  0  0  0  0
    5.2635    1.3174    0.0333 O   0  0  0  0  0  0  0  0  0  0  0  0
   -2.0146    3.1468    0.7921 C   0  0  0  0  0  0  0  0  0  0  0  0
   -1.0544   -0.3640    0.2456 C   0  0  0  0  0  0  0  0  0  0  0  0
    2.6170   -2.5842    1.1276 O   0  0  0  0  0  0  0  0  0  0  0  0
    0.4623    2.6891   -0.8568 O   0  0  0  0  0  0  0  0  0  0  0  0
    2.8640    1.3922   -0.1771 C   0  0  0  0  0  0  0  0  0  0  0  0
   -0.9581    0.9685   -0.0133 C   0  0  0  0  0  0  0  0  0  0  0  0
    2.6886   -1.2679    0.6716 C   0  0  0  0  0  0  0  0  0  0  0  0
  1  2  1  0
  1 12  1  0
  1 18  2  0
  2 17  2  0
  2 19  1  0
  3  8  1  6
  3 12  1  0
  3 15  1  0
  4  7  1  0
  4  8  1  0
  5  9  1  0
  6 11  2  0
  6 13  1  0
  6 18  1  0
  7 10  1  0
  9 14  1  0
  9 19  1  0
 10 15  1  0
 11 20  1  0
 12 20  2  0
 15 19  2  0
 16 20  1  0
M  END
