
     RDKit          3D

 14 16  0  0  0  0  0  0  0  0999 V2000
   -0.2703   11.9054   -0.8255 C   0  0  0  0  0  0  0  0  0  0  0  0
   -1.5316    9.9206    2.9449 C   0  0  0  0  0  0  0  0  0  0  0  0
    0.0466   12.5300    0.3544 C   0  0  0  0  0  0  0  0  0  0  0  0
    0.7815   13.6986    0.2360 C   0  0  0  0  0  0  0  0  0  0  0  0
   -1.0053   10.7683   -0.5819 O   0  0  0  0  0  0  0  0  0  0  0  0
   -0.7650   10.9972    3.4734 C   0  0  0  0  0  0  0  0  0  0  0  0
    0.8594   13.5490   -2.1713 C   0  0  0  0  0  0  0  0  0  0  0  0
    0.1238   12.3663   -1.9892 C   0  0  0  0  0  0  0  0  0  0  0  0
   -0.1420   11.9324    2.6073 C   0  0  0  0  0  0  0  0  0  0  0  0
   -0.2525   11.5310   -3.0478 O   0  0  0  0  0  0  0  0  0  0  0  0
   -0.3493   11.7832    1.2494 C   0  0  0  0  0  0  0  0  0  0  0  0
    1.1908   14.2422   -1.0212 C   0  0  0  0  0  0  0  0  0  0  0  0
   -1.6706    9.7953    1.5463 C   0  0  0  0  0  0  0  0  0  0  0  0
   -1.0641   10.7128    0.7324 C   0  0  0  0  0  0  0  0  0  0  0  0
  1  3  1  0
  1  5  1  0
  1  8  2  0
  2  6  2  0
  2 13  1  0
  3  4  2  0
  3 11  1  0
  4 12  1  0
  5 14  1  0
  6  9  1  0
  7  8  1  0
  7 12  2  0
  8 10  1  0
  9 11  2  0
 11 14  1  0
 13 14  2  0
M  END
