
     RDKit          3D

 13 14  0  0  0  0  0  0  0  0999 V2000
    1.6380    0.2699    0.5703 C   0  0  0  0  0  0  0  0  0  0  0  0
   -2.6106   -1.2205   -1.3266 O   0  0  0  0  0  0  0  0  0  0  0  0
    0.1604   -0.1727    0.4506 C   0  0  2  0  0  0  0  0  0  0  0  0
    2.5911   -0.7481    0.0367 C   0  0  0  0  0  0  0  0  0  0  0  0
    2.7354   -2.0751    0.5391 N   0  0  0  0  0  0  0  0  0  0  0  0
   -1.7889   -0.1151   -1.0404 C   0  0  2  0  0  0  0  0  0  0  0  0
    3.3203   -0.2821   -0.9186 N   0  0  0  0  0  0  0  0  0  0  0  0
   -0.3046   -0.5083   -0.9721 C   0  0  0  0  0  0  0  0  0  0  0  0
   -2.1474    0.5187    0.3157 C   0  0  2  0  0  0  0  0  0  0  0  0
    1.9427    1.4160   -0.2783 N   0  0  0  0  0  0  0  0  0  0  0  0
   -2.9942    1.6989    0.1443 N   0  0  0  0  0  0  0  0  0  0  0  0
    2.8892    1.0620   -1.0855 C   0  0  0  0  0  0  0  0  0  0  0  0
   -0.8126    0.8892    0.9508 C   0  0  0  0  0  0  0  0  0  0  0  0
  3  1  1  6
  1  4  1  0
  1 10  1  0
  6  2  1  1
  3  8  1  0
  3 13  1  0
  4  5  1  0
  4  7  2  0
  6  8  1  0
  6  9  1  0
  7 12  1  0
  9 11  1  6
  9 13  1  0
 10 12  2  0
M  END
