
     RDKit          3D

 15 17  0  0  0  0  0  0  0  0999 V2000
   -1.2020    0.9661   -1.4679 C   0  0  0  0  0  0  0  0  0  0  0  0
    2.4911   -0.2142   -0.1991 C   0  0  2  0  0  0  0  0  0  0  0  0
    0.5157    1.3676    0.4919 C   0  0  0  0  0  0  0  0  0  0  0  0
   -2.6498    1.2896   -1.0745 C   0  0  0  0  0  0  0  0  0  0  0  0
   -2.5134   -1.1288   -0.1592 C   0  0  0  0  0  0  0  0  0  0  0  0
   -1.0923   -0.8552    2.0108 C   0  0  0  0  0  0  0  0  0  0  0  0
   -3.3785    0.1268   -0.3549 C   0  0  0  0  0  0  0  0  0  0  0  0
    2.5850    2.1585   -0.3135 O   0  0  0  0  0  0  0  0  0  0  0  0
    1.4744   -1.2986    0.2211 C   0  0  0  0  0  0  0  0  0  0  0  0
    4.8219    0.4009    0.0358 O   0  0  0  0  0  0  0  0  0  0  0  0
    0.0860   -1.0490   -0.4071 C   0  0  2  0  0  0  0  0  0  0  0  0
    3.8018   -0.3887    0.5898 C   0  0  0  0  0  0  0  0  0  0  0  0
    1.9178    1.1788   -0.0164 C   0  0  0  0  0  0  0  0  0  0  0  0
   -0.4365    0.4000   -0.2511 C   0  0  2  0  0  0  0  0  0  0  0  0
   -1.1515   -0.7641    0.4723 C   0  0  1  0  0  0  0  0  0  0  0  0
  1  4  1  0
 14  1  1  6
  2  9  1  0
  2 12  1  1
  2 13  1  0
  3 13  1  0
  3 14  1  0
  4  7  1  0
  5  7  1  0
  5 15  1  0
 15  6  1  1
  8 13  2  0
 11  9  1  1
 10 12  1  0
 11 14  1  0
 11 15  1  0
 14 15  1  0
M  END
