
     RDKit          3D

 11 11  0  0  0  0  0  0  0  0999 V2000
   -1.8985   -1.8469    0.4243 N   0  0  0  0  0  0  0  0  0  0  0  0
    0.7840   -0.7870    0.0643 C   0  0  0  0  0  0  0  0  0  0  0  0
   -1.6322   -0.5102    0.9701 C   0  0  2  0  0  0  0  0  0  0  0  0
   -0.9900    0.7715   -0.9899 C   0  0  0  0  0  0  0  0  0  0  0  0
    3.1218   -1.1442   -0.5629 N   0  0  0  0  0  0  0  0  0  0  0  0
    2.5656    0.9850    0.5199 C   0  0  0  0  0  0  0  0  0  0  0  0
   -2.4707    1.0378   -0.7213 C   0  0  0  0  0  0  0  0  0  0  0  0
   -2.7897    0.4322    0.6428 C   0  0  0  0  0  0  0  0  0  0  0  0
    2.0825   -0.1105   -0.4542 C   0  0  2  0  0  0  0  0  0  0  0  0
   -0.4250    0.1591    0.2929 C   0  0  2  0  0  0  0  0  0  0  0  0
    1.8386    0.4482   -1.7241 O   0  0  0  0  0  0  0  0  0  0  0  0
  3  1  1  6
  2  9  1  0
 10  2  1  6
  3  8  1  0
  3 10  1  0
  4  7  1  0
  4 10  1  0
  5  9  1  0
  9  6  1  1
  7  8  1  0
  9 11  1  0
M  END
