
     RDKit          3D

 18 19  0  0  0  0  0  0  0  0999 V2000
   -0.0220   -0.8955    0.6289 C   0  0  2  0  0  0  0  0  0  0  0  0
    4.1838    1.5706    1.8940 C   0  0  0  0  0  0  0  0  0  0  0  0
    0.3967   -2.3030    1.0316 C   0  0  0  0  0  0  0  0  0  0  0  0
   -3.2390   -0.1122   -1.3169 C   0  0  0  0  0  0  0  0  0  0  0  0
   -3.3846    0.7100   -2.5983 C   0  0  0  0  0  0  0  0  0  0  0  0
    3.7675    2.6561    2.6671 C   0  0  0  0  0  0  0  0  0  0  0  0
    1.6419    2.6655    1.5167 C   0  0  0  0  0  0  0  0  0  0  0  0
   -1.8471    0.0047   -0.8348 N   0  0  0  0  0  0  0  0  0  0  0  0
    1.0989    1.0143   -0.1980 N   0  0  0  0  0  0  0  0  0  0  0  0
   -1.4377   -1.0978    0.0559 C   0  0  1  0  0  0  0  0  0  0  0  0
    0.9491   -0.3759   -0.3582 N   0  0  0  0  0  0  0  0  0  0  0  0
   -4.2572    0.3644   -0.2655 C   0  0  0  0  0  0  0  0  0  0  0  0
   -1.3726   -2.4519   -0.6583 C   0  0  0  0  0  0  0  0  0  0  0  0
    3.8458   -0.1118    0.0672 C   0  0  0  0  0  0  0  0  0  0  0  0
    3.3369    1.0233    0.9138 C   0  0  0  0  0  0  0  0  0  0  0  0
    2.0343    1.5590    0.7469 C   0  0  0  0  0  0  0  0  0  0  0  0
   -0.2435   -3.2369    0.0095 C   0  0  0  0  0  0  0  0  0  0  0  0
    2.5020    3.2082    2.4727 C   0  0  0  0  0  0  0  0  0  0  0  0
  1  3  1  0
  1 10  1  0
  1 11  1  6
  2  6  1  0
  2 15  2  0
  3 17  1  0
  4  5  1  0
  4  8  1  0
  4 12  1  0
  6 18  2  0
  7 16  2  0
  7 18  1  0
 10  8  1  6
  9 11  1  0
  9 16  1  0
 10 13  1  0
 13 17  1  0
 14 15  1  0
 15 16  1  0
M  END
