
     RDKit          3D

  9  9  0  0  0  0  0  0  0  0999 V2000
    2.4240    1.0863   -0.7387 N   0  0  0  0  0  0  0  0  0  0  0  0
    1.7993    0.0710   -0.2273 C   0  0  0  0  0  0  0  0  0  0  0  0
   -1.7468    1.2636    0.4304 C   0  0  0  0  0  0  0  0  0  0  0  0
   -0.3563    1.2641    0.2821 C   0  0  0  0  0  0  0  0  0  0  0  0
   -0.4196   -1.0962   -0.2694 C   0  0  0  0  0  0  0  0  0  0  0  0
   -2.4731    0.0879    0.2284 C   0  0  0  0  0  0  0  0  0  0  0  0
    2.5568   -1.0719    0.1787 N   0  0  0  0  0  0  0  0  0  0  0  0
    0.3228    0.0825   -0.0720 C   0  0  0  0  0  0  0  0  0  0  0  0
   -1.8101   -1.0906   -0.1209 C   0  0  0  0  0  0  0  0  0  0  0  0
  1  2  2  0
  2  7  1  0
  2  8  1  0
  3  4  1  0
  3  6  2  0
  4  8  2  0
  5  8  1  0
  5  9  2  0
  6  9  1  0
M  END
