
     RDKit          3D

  5  4  0  0  0  0  0  0  0  0999 V2000
   14.6966  -58.9758    2.7095 O   0  0  0  0  0  0  0  0  0  0  0  0
   13.3765  -59.3972    0.6985 C   0  0  0  0  0  0  0  0  0  0  0  0
   14.3813  -58.4990    1.4207 C   0  0  0  0  0  0  0  0  0  0  0  0
   15.5771  -58.4113    0.6838 O   0  0  0  0  0  0  0  0  0  0  0  0
   12.9580  -60.4480    1.1825 O   0  0  0  0  0  0  0  0  0  0  0  0
  1  3  1  0
  2  3  1  0
  2  5  2  0
  3  4  1  0
M  END
$$$$
