
     RDKit          3D

  7  6  0  0  0  0  0  0  0  0999 V2000
   14.5499  -59.3038   -0.3043 C   0  0  0  0  0  0  0  0  0  0  0  0
   14.3659  -59.7169    1.1575 C   0  0  0  0  0  0  0  0  0  0  0  0
   15.0238  -58.6731    2.0802 C   0  0  0  0  0  0  0  0  0  0  0  0
   14.8316  -59.0932    3.4426 O   0  0  0  0  0  0  0  0  0  0  0  0
   15.1360  -58.2894   -0.6796 O   0  0  0  0  0  0  0  0  0  0  0  0
   14.9462  -60.9927    1.3682 O   0  0  0  0  0  0  0  0  0  0  0  0
   12.9837  -59.8283    1.4503 O   0  0  0  0  0  0  0  0  0  0  0  0
  1  2  1  0
  1  5  2  0
  2  3  1  0
  2  6  1  0
  2  7  1  0
  3  4  1  0
M  END
$$$$
