
     RDKit          3D

  7  7  0  0  0  0  0  0  0  0999 V2000
   14.7679  -61.1837    1.9407 O   0  0  0  0  0  0  0  0  0  0  0  0
   13.7533  -58.7856    3.0128 N   0  0  0  0  0  0  0  0  0  0  0  0
   15.2620  -60.1438   -0.0149 O   0  0  0  0  0  0  0  0  0  0  0  0
   14.8985  -58.1575    2.3606 C   0  0  0  0  0  0  0  0  0  0  0  0
   13.8906  -58.9496    1.5666 C   0  0  2  0  0  0  0  0  0  0  0  0
   12.9246  -58.1860    0.8355 O   0  0  0  0  0  0  0  0  0  0  0  0
   14.2528  -60.2964    0.9626 C   0  0  0  0  0  0  0  0  0  0  0  0
  1  7  1  0
  2  4  1  0
  2  5  1  0
  3  7  1  0
  4  5  1  0
  5  6  1  1
  5  7  1  0
M  END
$$$$
