
     RDKit          3D

  7  7  0  0  0  0  0  0  0  0999 V2000
  -23.7191   24.3310   -4.4109 C   0  0  0  0  0  0  0  0  0  0  0  0
  -21.7318   25.0973   -5.6386 C   0  0  0  0  0  0  0  0  0  0  0  0
  -21.4140   25.8372   -2.0932 O   0  0  0  0  0  0  0  0  0  0  0  0
  -23.0110   24.4968   -5.6235 C   0  0  0  0  0  0  0  0  0  0  0  0
  -21.1665   25.5514   -4.4399 C   0  0  0  0  0  0  0  0  0  0  0  0
  -21.9033   25.3549   -3.2353 C   0  0  0  0  0  0  0  0  0  0  0  0
  -23.1818   24.7314   -3.1914 C   0  0  0  0  0  0  0  0  0  0  0  0
  1  4  2  0
  1  7  1  0
  2  4  1  0
  2  5  2  0
  3  6  1  0
  5  6  1  0
  6  7  2  0
M  END
$$$$
