
     RDKit          3D

 17 18  0  0  0  0  0  0  0  0999 V2000
  -20.0705   24.8023   -3.2420 C   0  0  0  0  0  0  0  0  0  0  0  0
  -23.3382   24.0129   -5.9126 C   0  0  0  0  0  0  0  0  0  0  0  0
  -19.2652   24.3844   -3.6266 C   0  0  0  0  0  0  0  0  0  0  0  0
  -22.2977   24.2733   -5.1203 C   0  0  0  0  0  0  0  0  0  0  0  0
  -24.5291   24.3146   -5.4066 C   0  0  0  0  0  0  0  0  0  0  0  0
  -19.8536   25.2325   -4.2778 C   0  0  0  0  0  0  0  0  0  0  0  0
  -21.4669   25.0323   -2.9416 C   0  0  0  0  0  0  0  0  0  0  0  0
  -17.8803   24.8009   -4.0134 C   0  0  0  0  0  0  0  0  0  0  0  0
  -23.9687   25.5096   -2.1833 C   0  0  0  0  0  0  0  0  0  0  0  0
  -22.9549   25.8010   -1.3266 C   0  0  0  0  0  0  0  0  0  0  0  0
  -23.7334   24.9991   -3.4290 C   0  0  0  0  0  0  0  0  0  0  0  0
  -21.6878   25.5452   -1.7157 C   0  0  0  0  0  0  0  0  0  0  0  0
  -17.4036   24.7419   -5.1103 N   0  0  0  0  0  0  0  0  0  0  0  0
  -24.7328   24.7810   -4.1915 N   0  0  0  0  0  0  0  0  0  0  0  0
  -22.4612   24.7434   -3.8482 C   0  0  0  0  0  0  0  0  0  0  0  0
  -20.0130   25.3270   -5.5641 O   0  0  0  0  0  0  0  0  0  0  0  0
  -17.4146   25.1622   -2.7382 O   0  0  0  0  0  0  0  0  0  0  0  0
  1  3  1  0
  1  6  1  0
  1  7  1  0
  2  4  2  0
  2  5  1  0
  3  8  1  0
  4 15  1  0
  5 14  2  0
  6 16  1  0
  7 12  1  0
  7 15  2  0
  8 13  1  0
  8 17  2  0
  9 10  1  0
  9 11  2  0
 10 12  2  0
 11 14  1  0
 11 15  1  0
M  END
$$$$
