
     RDKit          3D

 27 28  0  0  0  0  0  0  0  0999 V2000
   -0.1224   -2.9835   -0.8138 C   0  0  0  0  0  0  0  0  0  0  0  0
   -4.7237    1.1062    2.6129 N   0  0  0  0  0  0  0  0  0  0  0  0
    4.7351    0.1055   -0.9507 P   0  0  1  0  0  0  0  0  0  0  0  0
   -4.9483    1.7263    0.2692 C   0  0  0  0  0  0  0  0  0  0  0  0
   -2.1593    1.0411   -2.8357 C   0  0  0  0  0  0  0  0  0  0  0  0
    4.4899    1.5601   -0.6114 O   0  0  0  0  0  0  0  0  0  0  0  0
    4.1848   -0.1920   -2.5239 O   0  0  0  0  0  0  0  0  0  0  0  0
    1.7653   -1.5299    1.0159 C   0  0  0  0  0  0  0  0  0  0  0  0
   -2.1368    1.2040   -0.0108 C   0  0  2  0  0  0  0  0  0  0  0  0
    6.8841   -0.2318    0.7318 P   0  0  0  0  0  0  0  0  0  0  0  0
    6.4063   -0.2160   -0.9021 O   0  0  0  0  0  0  0  0  0  0  0  0
   -2.7555    1.1495    1.3151 N   0  0  0  0  0  0  0  0  0  0  0  0
    8.5751   -0.2243    0.7941 O   0  0  0  0  0  0  0  0  0  0  0  0
   -4.3162    2.1178   -0.7989 N   0  0  0  0  0  0  0  0  0  0  0  0
   -2.4402    2.1783   -2.2732 N   0  0  0  0  0  0  0  0  0  0  0  0
    6.3749   -1.4877    1.4043 O   0  0  0  0  0  0  0  0  0  0  0  0
   -2.1317   -0.2002   -2.0438 C   0  0  0  0  0  0  0  0  0  0  0  0
   -2.8580    2.2735   -0.8734 C   0  0  2  0  0  0  0  0  0  0  0  0
   -2.0205   -1.4386    0.0823 C   0  0  0  0  0  0  0  0  0  0  0  0
    3.8988   -0.9067    0.1412 O   0  0  0  0  0  0  0  0  0  0  0  0
   -6.4452    1.6566    0.2451 C   0  0  0  0  0  0  0  0  0  0  0  0
    2.5228   -0.6272    0.0442 C   0  0  0  0  0  0  0  0  0  0  0  0
   -4.1689    1.3138    1.4595 C   0  0  0  0  0  0  0  0  0  0  0  0
    6.3001    1.1322    1.5503 O   0  0  0  0  0  0  0  0  0  0  0  0
   -2.1693   -0.1541   -0.7010 C   0  0  0  0  0  0  0  0  0  0  0  0
    0.2840   -1.2559    0.9522 C   0  0  0  0  0  0  0  0  0  0  0  0
   -0.5730   -1.8759    0.1094 C   0  0  0  0  0  0  0  0  0  0  0  0
  1 27  1  0
  2 23  2  0
  3  6  2  0
  3  7  1  6
  3 11  1  0
  3 20  1  0
  4 14  2  0
  4 21  1  0
  4 23  1  0
  5 15  2  0
  5 17  1  0
  8 22  1  0
  8 26  1  0
  9 12  1  1
  9 18  1  0
  9 25  1  0
 10 11  1  0
 10 13  1  0
 10 16  2  0
 10 24  1  0
 12 23  1  0
 18 14  1  6
 15 18  1  0
 17 25  2  0
 19 25  1  0
 19 27  1  0
 20 22  1  0
 26 27  2  3
M  END
