
     RDKit          3D

 30 32  0  0  0  0  0  0  0  0999 V2000
    0.8041   -1.3819   -2.2898 O   0  0  0  0  0  0  0  0  0  0  0  0
   -7.4276    0.3864   -2.6805 O   0  0  0  0  0  0  0  0  0  0  0  0
    0.2440   -1.1215    1.5127 C   0  0  0  0  0  0  0  0  0  0  0  0
    0.3834   -3.4569    1.0137 O   0  0  0  0  0  0  0  0  0  0  0  0
   -0.8999   -0.8949    2.2132 C   0  0  0  0  0  0  0  0  0  0  0  0
    2.9923   -0.6471   -1.9905 N   0  0  0  0  0  0  0  0  0  0  0  0
    2.5039   -0.9567    0.8127 N   0  0  0  0  0  0  0  0  0  0  0  0
   -3.0115   -1.0087    0.8498 C   0  0  0  0  0  0  0  0  0  0  0  0
   -5.5074    0.1962   -0.7602 C   0  0  1  0  0  0  0  0  0  0  0  0
    4.1366   -0.6071   -1.0862 C   0  0  0  0  0  0  0  0  0  0  0  0
   -6.9216    2.6185   -1.4157 O   0  0  0  0  0  0  0  0  0  0  0  0
   -3.4470    0.2547    1.2975 O   0  0  0  0  0  0  0  0  0  0  0  0
   -5.1685    1.5643   -3.2669 O   0  0  0  0  0  0  0  0  0  0  0  0
   -4.6858    2.6002    0.5556 O   0  0  0  0  0  0  0  0  0  0  0  0
    3.6633   -0.1389    0.3151 C   0  0  1  0  0  0  0  0  0  0  0  0
    1.4865   -0.3075    1.6556 C   0  0  0  0  0  0  0  0  0  0  0  0
   -3.0534    1.3646   -1.0624 O   0  0  0  0  0  0  0  0  0  0  0  0
   -2.1737   -1.6756    1.9423 C   0  0  0  0  0  0  0  0  0  0  0  0
    5.1757    0.2694   -1.6281 N   0  0  0  0  0  0  0  0  0  0  0  0
    3.4085    1.3883    0.2694 C   0  0  0  0  0  0  0  0  0  0  0  0
    5.3439    1.6200   -1.1781 C   0  0  0  0  0  0  0  0  0  0  0  0
   -0.9467    0.1966    3.2576 C   0  0  0  0  0  0  0  0  0  0  0  0
   -6.3000    1.1851   -2.0668 P   0  0  0  0  0  0  0  0  0  0  0  0
    1.8172   -1.8643   -0.1353 C   0  0  1  0  0  0  0  0  0  0  0  0
    4.5678    2.1048   -0.2575 N   0  0  0  0  0  0  0  0  0  0  0  0
   -4.1180    1.1127   -0.0171 P   0  0  2  0  0  0  0  0  0  0  0  0
    0.4232   -2.1653    0.4549 C   0  0  2  0  0  0  0  0  0  0  0  0
    6.5031    2.4280   -1.6645 C   0  0  0  0  0  0  0  0  0  0  0  0
   -6.4359   -0.1016    0.2188 F   0  0  0  0  0  0  0  0  0  0  0  0
    1.7999   -1.2725   -1.5250 C   0  0  0  0  0  0  0  0  0  0  0  0
  1 30  2  0
  2 23  2  0
  3  5  2  3
  3 16  1  0
  3 27  1  0
 27  4  1  1
  5 18  1  0
  5 22  1  0
  6 10  1  0
  6 30  1  0
  7 15  1  0
  7 16  1  0
  7 24  1  0
  8 12  1  0
  8 18  1  0
  9 23  1  0
  9 26  1  0
  9 29  1  1
 10 15  1  0
 10 19  1  0
 11 23  1  0
 12 26  1  0
 13 23  1  0
 26 14  1  1
 15 20  1  6
 17 26  2  0
 19 21  1  0
 20 25  1  0
 21 25  2  0
 21 28  1  0
 24 27  1  0
 24 30  1  6
M  END
