
     RDKit          3D

 29 29  0  0  0  0  0  0  0  0999 V2000
    5.1166   -2.8972    0.0513 P   0  0  0  0  0  0  0  0  0  0  0  0
   -4.5305   -1.6497    2.3789 N   0  0  0  0  0  0  0  0  0  0  0  0
    4.7245   -1.0457   -2.3702 O   0  0  0  0  0  0  0  0  0  0  0  0
    0.4272    1.8435   -1.0591 C   0  0  0  0  0  0  0  0  0  0  0  0
    4.9431   -0.3676   -1.0344 P   0  0  2  0  0  0  0  0  0  0  0  0
    1.9110    2.1141   -1.0514 C   0  0  0  0  0  0  0  0  0  0  0  0
   -3.3320   -1.3466    1.8196 C   0  0  0  0  0  0  0  0  0  0  0  0
   -2.5992    2.5346   -0.6970 C   0  0  1  0  0  0  0  0  0  0  0  0
    4.7918   -3.8153    1.4350 O   0  0  0  0  0  0  0  0  0  0  0  0
    4.4058   -1.3618    0.2441 O   0  0  0  0  0  0  0  0  0  0  0  0
   -6.8521   -2.2786    2.2172 N   0  0  0  0  0  0  0  0  0  0  0  0
   -5.6024   -1.9637    1.6079 C   0  0  0  0  0  0  0  0  0  0  0  0
   -1.9546    0.2157   -0.9230 O   0  0  0  0  0  0  0  0  0  0  0  0
    2.6990    0.8059   -1.0291 C   0  0  0  0  0  0  0  0  0  0  0  0
    6.7791    0.6739    0.3480 C   0  0  0  0  0  0  0  0  0  0  0  0
   -3.1789   -1.3543    0.4262 C   0  0  0  0  0  0  0  0  0  0  0  0
    4.5184   -3.5973   -1.1486 O   0  0  0  0  0  0  0  0  0  0  0  0
    4.0751    1.1020   -1.0172 O   0  0  0  0  0  0  0  0  0  0  0  0
   -4.0992    2.2220   -0.7842 C   0  0  0  0  0  0  0  0  0  0  0  0
   -2.3947    3.7141    0.0419 O   0  0  0  0  0  0  0  0  0  0  0  0
    6.6043   -0.0269   -0.8578 O   0  0  0  0  0  0  0  0  0  0  0  0
   -5.4835   -1.9754    0.2554 N   0  0  0  0  0  0  0  0  0  0  0  0
    6.7945   -2.7755   -0.1428 O   0  0  0  0  0  0  0  0  0  0  0  0
    0.2516    1.8785    1.4363 C   0  0  0  0  0  0  0  0  0  0  0  0
   -4.2510   -1.7048   -1.7885 N   0  0  0  0  0  0  0  0  0  0  0  0
   -4.3067   -1.6796   -0.3582 C   0  0  0  0  0  0  0  0  0  0  0  0
   -1.8092    1.3535   -0.0859 C   0  0  1  0  0  0  0  0  0  0  0  0
   -0.3334    1.7054    0.0530 C   0  0  0  0  0  0  0  0  0  0  0  0
   -1.8472   -0.9861   -0.1828 C   0  0  0  0  0  0  0  0  0  0  0  0
  1  9  1  0
  1 10  1  0
  1 17  2  0
  1 23  1  0
  2  7  2  0
  2 12  1  0
  3  5  2  0
  4  6  1  0
  4 28  2  3
  5 10  1  1
  5 18  1  0
  5 21  1  0
  6 14  1  0
  7 16  1  0
  8 19  1  1
  8 20  1  0
  8 27  1  0
 11 12  1  0
 12 22  2  0
 27 13  1  6
 13 29  1  0
 14 18  1  0
 15 21  1  0
 16 26  2  0
 16 29  1  0
 22 26  1  0
 24 28  1  0
 25 26  1  0
 27 28  1  0
M  END
