
     RDKit          3D

 29 33  0  0  0  0  0  0  0  0999 V2000
   30.5996   27.7038    4.7273 C   0  0  0  0  0  0  0  0  0  0  0  0
   29.6273   27.6438    0.0197 C   0  0  0  0  0  0  0  0  0  0  0  0
   29.2839   22.9795    3.2946 N   0  0  0  0  0  0  0  0  0  0  0  0
   35.0356   23.0212    3.6135 C   0  0  0  0  0  0  0  0  0  0  0  0
   33.6363   22.7738    6.4526 C   0  0  0  0  0  0  0  0  0  0  0  0
   33.0302   23.4764    2.2138 C   0  0  0  0  0  0  0  0  0  0  0  0
   32.8174   24.1776    4.4480 C   0  0  0  0  0  0  0  0  0  0  0  0
   28.3407   23.9834    1.5017 O   0  0  0  0  0  0  0  0  0  0  0  0
   31.7872   23.9496    2.3247 C   0  0  0  0  0  0  0  0  0  0  0  0
   32.6756   22.8485    5.2516 C   0  0  0  0  0  0  0  0  0  0  0  0
   34.4095   23.9127    8.4640 C   0  0  0  0  0  0  0  0  0  0  0  0
   31.6332   24.7213    3.5828 C   0  0  0  0  0  0  0  0  0  0  0  0
   30.8369   27.0540    3.4537 N   0  0  0  0  0  0  0  0  0  0  0  0
   30.6928   23.7080    1.3648 C   0  0  0  0  0  0  0  0  0  0  0  0
   30.1917   27.8284   -1.5883 Cl  0  0  0  0  0  0  0  0  0  0  0  0
   34.1856   24.8967    9.4705 O   0  0  0  0  0  0  0  0  0  0  0  0
   33.8772   25.2134    6.4998 C   0  0  0  0  0  0  0  0  0  0  0  0
   32.0031   27.7701    5.3256 C   0  0  0  0  0  0  0  0  0  0  0  0
   28.6275   27.3851    2.5671 C   0  0  0  0  0  0  0  0  0  0  0  0
   29.9839   27.2955    2.3517 C   0  0  0  0  0  0  0  0  0  0  0  0
   28.2810   27.7396    0.2262 C   0  0  0  0  0  0  0  0  0  0  0  0
   27.7762   27.6007    1.4955 C   0  0  0  0  0  0  0  0  0  0  0  0
   33.4746   24.0231    7.3008 C   0  0  0  0  0  0  0  0  0  0  0  0
   32.8704   25.3654    5.4385 C   0  0  0  0  0  0  0  0  0  0  0  0
   33.8610   23.9047    3.3631 C   0  0  0  0  0  0  0  0  0  0  0  0
   29.3584   23.5782    2.0641 C   0  0  0  0  0  0  0  0  0  0  0  0
   30.4937   27.4144    1.0654 C   0  0  0  0  0  0  0  0  0  0  0  0
   31.9692   26.2098    3.4296 C   0  0  0  0  0  0  0  0  0  0  0  0
   32.6681   26.6303    4.6968 C   0  0  0  0  0  0  0  0  0  0  0  0
  1 13  1  0
  1 18  1  0
  2 15  1  0
  2 21  1  0
  2 27  2  0
  3 26  1  0
  4 25  1  0
  5 10  1  0
  5 23  1  0
  6  9  2  0
  6 25  1  0
  7 10  1  0
  7 12  1  0
  7 24  1  0
  7 25  1  0
  8 26  2  0
  9 12  1  0
  9 14  1  0
 11 16  1  0
 11 23  1  0
 12 28  1  0
 13 20  1  0
 13 28  1  0
 14 26  1  0
 17 23  1  0
 17 24  1  0
 18 29  1  0
 19 20  2  0
 19 22  1  0
 20 27  1  0
 21 22  2  0
 24 29  1  0
 28 29  1  0
M  END
$$$$
