
     RDKit          3D

 21 23  0  0  0  0  0  0  0  0999 V2000
   31.8243   27.3603    0.4441 C   0  0  0  0  0  0  0  0  0  0  0  0
   30.1311   24.2535    1.7503 N   0  0  0  0  0  0  0  0  0  0  0  0
   31.7295   26.1594    1.1000 C   0  0  0  0  0  0  0  0  0  0  0  0
   30.5195   22.7647    4.8571 O   0  0  0  0  0  0  0  0  0  0  0  0
   31.9714   23.1428    3.3342 C   0  0  0  0  0  0  0  0  0  0  0  0
   34.2417   24.6822    4.5972 C   0  0  0  0  0  0  0  0  0  0  0  0
   30.7043   27.9329   -0.0996 C   0  0  0  0  0  0  0  0  0  0  0  0
   28.5953   23.8766    1.7398 C   0  0  0  0  0  0  0  0  0  0  0  0
   35.4012   24.0458    5.0374 C   0  0  0  0  0  0  0  0  0  0  0  0
   30.7341   23.8024    2.9013 C   0  0  0  0  0  0  0  0  0  0  0  0
   29.8769   23.4522    3.9756 N   0  0  0  0  0  0  0  0  0  0  0  0
   35.0576   24.9315    7.2780 C   0  0  0  0  0  0  0  0  0  0  0  0
   33.3284   23.2359    2.6451 C   0  0  0  0  0  0  0  0  0  0  0  0
   29.3113   26.1413    0.7050 C   0  0  0  0  0  0  0  0  0  0  0  0
   31.8681   22.5695    4.5728 N   0  0  0  0  0  0  0  0  0  0  0  0
   33.8705   24.5650    3.1649 C   0  0  0  0  0  0  0  0  0  0  0  0
   29.4387   27.3519    0.0302 C   0  0  0  0  0  0  0  0  0  0  0  0
   33.8996   25.5429    6.8388 C   0  0  0  0  0  0  0  0  0  0  0  0
   35.8217   24.1569    6.3922 C   0  0  0  0  0  0  0  0  0  0  0  0
   33.4821   25.4404    5.5057 C   0  0  0  0  0  0  0  0  0  0  0  0
   30.4800   25.5791    1.2103 C   0  0  0  0  0  0  0  0  0  0  0  0
  1  3  1  0
  1  7  2  0
  2  8  1  0
  2 10  1  0
  2 21  1  0
  3 21  2  0
  4 11  1  0
  4 15  1  0
  5 10  1  0
  5 13  1  0
  5 15  2  0
  6  9  1  0
  6 16  1  0
  6 20  2  0
  7 17  1  0
  9 19  2  0
 10 11  2  0
 12 18  2  0
 12 19  1  0
 13 16  1  0
 14 17  2  0
 14 21  1  0
 18 20  1  0
M  END
$$$$
