
     RDKit          3D

 30 33  0  0  0  0  0  0  0  0999 V2000
   35.3952   24.0045    4.4171 C   0  0  0  0  0  0  0  0  0  0  0  0
   29.6524   25.5480    1.2534 C   0  0  0  0  0  0  0  0  0  0  0  0
   34.0449   23.8509    3.9109 C   0  0  0  0  0  0  0  0  0  0  0  0
   33.0309   27.4830    5.8511 N   0  0  0  0  0  0  0  0  0  0  0  0
   30.8073   28.0790    4.6581 C   0  0  0  0  0  0  0  0  0  0  0  0
   29.3263   27.9070    2.8169 C   0  0  0  0  0  0  0  0  0  0  0  0
   30.7552   26.9246   -0.3267 C   0  0  0  0  0  0  0  0  0  0  0  0
   30.5529   24.2581    3.1454 C   0  0  0  0  0  0  0  0  0  0  0  0
   29.6948   23.2513    2.7328 C   0  0  0  0  0  0  0  0  0  0  0  0
   28.8377   23.3792    1.6386 C   0  0  0  0  0  0  0  0  0  0  0  0
   35.3879   24.4924    5.8636 C   0  0  0  0  0  0  0  0  0  0  0  0
   28.8096   24.5096    0.8912 C   0  0  0  0  0  0  0  0  0  0  0  0
   29.9752   28.9786    5.1632 C   0  0  0  0  0  0  0  0  0  0  0  0
   30.4978   27.5869    3.4524 C   0  0  0  0  0  0  0  0  0  0  0  0
   31.4236   24.0696    4.3494 C   0  0  0  0  0  0  0  0  0  0  0  0
   30.5128   25.3724    2.3740 C   0  0  0  0  0  0  0  0  0  0  0  0
   34.2138   24.4852    8.0086 C   0  0  0  0  0  0  0  0  0  0  0  0
   29.7274   23.9228    5.9801 O   0  0  0  0  0  0  0  0  0  0  0  0
   32.9479   23.9646    6.0140 N   0  0  0  0  0  0  0  0  0  0  0  0
   28.7773   29.3766    4.5116 C   0  0  0  0  0  0  0  0  0  0  0  0
   32.8564   23.9840    4.6108 C   0  0  0  0  0  0  0  0  0  0  0  0
   30.9563   24.0133    5.6452 C   0  0  0  0  0  0  0  0  0  0  0  0
   33.9937   23.3351    2.5524 C   0  0  0  0  0  0  0  0  0  0  0  0
   28.4593   28.8052    3.3426 C   0  0  0  0  0  0  0  0  0  0  0  0
   34.2580   23.8154    6.6658 C   0  0  0  0  0  0  0  0  0  0  0  0
   33.9319   25.8241    7.8567 O   0  0  0  0  0  0  0  0  0  0  0  0
   31.3671   26.5138    2.7990 C   0  0  0  0  0  0  0  0  0  0  0  0
   32.0348   27.7763    5.2969 C   0  0  0  0  0  0  0  0  0  0  0  0
   31.8328   24.0547    6.6302 N   0  0  0  0  0  0  0  0  0  0  0  0
   29.6129   26.6684    0.4660 O   0  0  0  0  0  0  0  0  0  0  0  0
  1  3  1  0
  1 11  1  0
  2 12  1  0
  2 16  2  0
  2 30  1  0
  3 21  2  0
  3 23  1  0
  4 28  3  0
  5 13  2  0
  5 14  1  0
  5 28  1  0
  6 14  2  0
  6 24  1  0
  7 30  1  0
  8  9  2  0
  8 15  1  0
  8 16  1  0
  9 10  1  0
 10 12  2  0
 11 25  1  0
 13 20  1  0
 14 27  1  0
 15 21  1  0
 15 22  2  0
 16 27  1  0
 17 25  1  0
 17 26  1  0
 18 22  1  0
 19 21  1  0
 19 25  1  0
 19 29  1  0
 20 24  2  0
 22 29  1  0
M  END
$$$$
