
     RDKit          3D

 22 24  0  0  0  0  0  0  0  0999 V2000
   30.7167   23.6771    3.3199 N   0  0  0  0  0  0  0  0  0  0  0  0
   31.0756   23.3127    4.5653 C   0  0  0  0  0  0  0  0  0  0  0  0
   34.5808   23.8520    5.6520 C   0  0  0  0  0  0  0  0  0  0  0  0
   28.9824   22.6559    4.2312 C   0  0  0  0  0  0  0  0  0  0  0  0
   31.1544   26.1557    0.6034 C   0  0  0  0  0  0  0  0  0  0  0  0
   31.8793   25.2488    5.7845 C   0  0  0  0  0  0  0  0  0  0  0  0
   31.6182   24.2476    2.2932 C   0  0  0  0  0  0  0  0  0  0  0  0
   30.0588   22.7373    5.1548 N   0  0  0  0  0  0  0  0  0  0  0  0
   29.4519   23.2201    3.1014 C   0  0  0  0  0  0  0  0  0  0  0  0
   29.8879   27.7100    2.5877 C   0  0  0  0  0  0  0  0  0  0  0  0
   30.6291   27.4052    0.2901 C   0  0  0  0  0  0  0  0  0  0  0  0
   34.3112   25.0980    6.5255 C   0  0  0  0  0  0  0  0  0  0  0  0
   33.2005   26.0070    5.9524 C   0  0  0  0  0  0  0  0  0  0  0  0
   33.2810   22.9945    5.4951 C   0  0  0  0  0  0  0  0  0  0  0  0
   28.5547   23.4620    1.5734 Cl  0  0  0  0  0  0  0  0  0  0  0  0
   30.6918   28.0934   -1.2429 Cl  0  0  0  0  0  0  0  0  0  0  0  0
   35.5032   25.8630    6.6343 O   0  0  0  0  0  0  0  0  0  0  0  0
   31.0548   25.6835    1.9299 C   0  0  0  0  0  0  0  0  0  0  0  0
   29.9957   28.1924    1.2837 C   0  0  0  0  0  0  0  0  0  0  0  0
   32.1464   23.8882    5.2322 N   0  0  0  0  0  0  0  0  0  0  0  0
   32.0459   23.3086    1.1534 C   0  0  0  0  0  0  0  0  0  0  0  0
   30.4104   26.4581    2.9235 C   0  0  0  0  0  0  0  0  0  0  0  0
  1  2  1  0
  1  7  1  0
  1  9  1  0
  2  8  2  0
  2 20  1  0
  3 12  1  0
  3 14  1  0
  4  8  1  0
  4  9  2  0
  5 11  2  0
  5 18  1  0
  6 13  1  0
  6 20  1  0
  7 18  1  0
  7 21  1  0
  9 15  1  0
 10 19  2  0
 10 22  1  0
 11 16  1  0
 11 19  1  0
 12 13  1  0
 12 17  1  0
 14 20  1  0
 18 22  2  0
M  END
$$$$
