
     RDKit          3D

 22 24  0  0  0  0  0  0  0  0999 V2000
   30.5563   23.3820    3.4127 C   0  0  0  0  0  0  0  0  0  0  0  0
   34.5734   24.0408    8.5273 C   0  0  0  0  0  0  0  0  0  0  0  0
   31.6756   24.1416    3.5890 N   0  0  0  0  0  0  0  0  0  0  0  0
   28.4604   23.7972    1.8825 C   0  0  0  0  0  0  0  0  0  0  0  0
   33.5480   22.4951    4.1616 C   0  0  0  0  0  0  0  0  0  0  0  0
   30.2496   22.0444    4.0390 C   0  0  0  0  0  0  0  0  0  0  0  0
   34.0804   25.1279    7.5964 C   0  0  0  0  0  0  0  0  0  0  0  0
   31.5485   24.0878    6.4681 O   0  0  0  0  0  0  0  0  0  0  0  0
   29.7735   24.0524    2.4961 C   0  0  0  0  0  0  0  0  0  0  0  0
   32.5325   24.1682    5.8257 C   0  0  0  0  0  0  0  0  0  0  0  0
   29.5754   28.1082   -0.7297 C   0  0  0  0  0  0  0  0  0  0  0  0
   31.1387   26.6016    0.2627 C   0  0  0  0  0  0  0  0  0  0  0  0
   30.8546   27.6111   -0.6217 C   0  0  0  0  0  0  0  0  0  0  0  0
   33.7842   24.7223    6.1716 N   0  0  0  0  0  0  0  0  0  0  0  0
   33.3468   23.3925    9.0863 O   0  0  0  0  0  0  0  0  0  0  0  0
   30.5488   25.2178    2.1949 C   0  0  0  0  0  0  0  0  0  0  0  0
   30.1495   26.2675    1.1772 C   0  0  0  0  0  0  0  0  0  0  0  0
   34.2196   23.8660    3.8659 C   0  0  0  0  0  0  0  0  0  0  0  0
   31.6652   25.1822    2.9146 N   0  0  0  0  0  0  0  0  0  0  0  0
   32.8313   23.7968    4.4075 C   0  0  0  0  0  0  0  0  0  0  0  0
   28.8643   26.8089    1.1433 C   0  0  0  0  0  0  0  0  0  0  0  0
   28.5707   27.7695    0.1849 C   0  0  0  0  0  0  0  0  0  0  0  0
  1  3  1  0
  1  6  1  0
  1  9  2  0
  2  7  1  0
  2 15  1  0
  3 19  1  0
  3 20  1  0
  4  9  1  0
  5 18  1  0
  5 20  1  0
  7 14  1  0
  8 10  2  0
  9 16  1  0
 10 14  1  0
 10 20  1  0
 11 13  2  0
 11 22  1  0
 12 13  1  0
 12 17  2  0
 16 17  1  0
 16 19  2  0
 17 21  1  0
 18 20  1  0
 21 22  2  0
M  END
$$$$
