
     RDKit          3D

 19 21  0  0  0  0  0  0  0  0999 V2000
  -10.8374  -11.4396   23.8526 O   0  0  0  0  0  0  0  0  0  0  0  0
  -13.2222  -10.8487   23.8928 C   0  0  0  0  0  0  0  0  0  0  0  0
  -12.5689   -8.4155   25.3026 C   0  0  0  0  0  0  0  0  0  0  0  0
  -12.0961   -6.9795   25.7577 C   0  0  0  0  0  0  0  0  0  0  0  0
  -12.8951   -8.0882   21.5911 C   0  0  0  0  0  0  0  0  0  0  0  0
  -14.6131  -10.1244   22.1903 C   0  0  0  0  0  0  0  0  0  0  0  0
  -11.9805   -7.0230   21.2650 N   0  0  0  0  0  0  0  0  0  0  0  0
  -11.8689  -10.6928   24.5184 C   0  0  0  0  0  0  0  0  0  0  0  0
  -13.4557   -9.9468   22.9169 C   0  0  0  0  0  0  0  0  0  0  0  0
  -11.5131   -9.2374   24.6098 C   0  0  0  0  0  0  0  0  0  0  0  0
  -10.2164   -9.0615   25.3390 C   0  0  0  0  0  0  0  0  0  0  0  0
  -13.8453   -7.8995   27.1771 C   0  0  0  0  0  0  0  0  0  0  0  0
  -11.4299   -8.6390   23.2749 O   0  0  0  0  0  0  0  0  0  0  0  0
  -14.2454   -6.6014   25.3007 O   0  0  0  0  0  0  0  0  0  0  0  0
  -12.6008   -8.9029   22.6268 C   0  0  0  0  0  0  0  0  0  0  0  0
  -13.4305   -6.6527   26.3990 C   0  0  0  0  0  0  0  0  0  0  0  0
  -14.8940   -9.2521   21.1444 C   0  0  0  0  0  0  0  0  0  0  0  0
  -14.0241   -8.2313   20.8350 C   0  0  0  0  0  0  0  0  0  0  0  0
  -13.0422   -9.0434   26.5808 C   0  0  0  0  0  0  0  0  0  0  0  0
  1  8  1  0
  2  8  1  0
  2  9  1  0
  3  4  1  0
  3 10  1  0
  3 19  1  0
  4 16  1  0
  5  7  1  0
  5 15  2  0
  5 18  1  0
  6  9  2  0
  6 17  1  0
  8 10  1  0
  9 15  1  0
 10 11  1  0
 10 13  1  0
 12 16  1  0
 12 19  1  0
 13 15  1  0
 14 16  1  0
 17 18  2  0
M  END
$$$$
