
     RDKit          3D

 16 17  0  0  0  0  0  0  0  0999 V2000
  -11.4439   -6.4937   25.8085 F   0  0  0  0  0  0  0  0  0  0  0  0
  -12.0587   -9.6356   22.9969 C   0  0  0  0  0  0  0  0  0  0  0  0
  -12.3763   -8.4175   22.4409 C   0  0  0  0  0  0  0  0  0  0  0  0
  -12.3783   -8.2327   26.7579 O   0  0  0  0  0  0  0  0  0  0  0  0
  -11.8276   -7.4936   20.3476 O   0  0  0  0  0  0  0  0  0  0  0  0
  -12.0246   -9.3542   24.3491 C   0  0  0  0  0  0  0  0  0  0  0  0
  -12.5841   -7.4381   23.3470 N   0  0  0  0  0  0  0  0  0  0  0  0
  -12.5122   -7.3270   25.6924 C   0  0  0  0  0  0  0  0  0  0  0  0
  -11.4444  -11.5573   24.7456 C   0  0  0  0  0  0  0  0  0  0  0  0
  -12.3688   -8.0181   24.4900 C   0  0  0  0  0  0  0  0  0  0  0  0
  -11.7064  -10.3373   25.1524 C   0  0  0  0  0  0  0  0  0  0  0  0
  -13.7534   -6.5149   25.8856 C   0  0  0  0  0  0  0  0  0  0  0  0
  -12.6923   -8.0840   21.1109 C   0  0  0  0  0  0  0  0  0  0  0  0
  -11.5034  -11.8451   23.4480 C   0  0  0  0  0  0  0  0  0  0  0  0
  -11.8130  -10.8702   22.5631 C   0  0  0  0  0  0  0  0  0  0  0  0
  -13.8214   -8.3208   20.6790 O   0  0  0  0  0  0  0  0  0  0  0  0
  1  8  1  0
  2  3  2  0
  2  6  1  0
  2 15  1  0
  3  7  1  0
  3 13  1  0
  4  8  1  0
  5 13  1  0
  6 10  2  0
  6 11  1  0
  7 10  1  0
  8 10  1  0
  8 12  1  0
  9 11  1  0
  9 14  1  0
 13 16  2  0
 14 15  1  0
M  END
$$$$
