
     RDKit          3D

 32 36  0  0  0  0  0  0  0  0999 V2000
  -40.3961   -7.5949    8.1296 N   0  0  0  0  0  0  0  0  0  0  0  0
  -39.8938   -8.5247    7.2451 C   0  0  0  0  0  0  0  0  0  0  0  0
  -41.0019  -12.1118    9.9976 C   0  0  0  0  0  0  0  0  0  0  0  0
  -40.2817   -4.7534    9.9692 C   0  0  0  0  0  0  0  0  0  0  0  0
  -38.7056  -10.6493   12.5417 C   0  0  0  0  0  0  0  0  0  0  0  0
  -38.7201   -9.6689   11.3002 C   0  0  0  0  0  0  0  0  0  0  0  0
  -39.9247   -6.5800    5.7497 C   0  0  0  0  0  0  0  0  0  0  0  0
  -39.9165  -11.3574   10.5945 C   0  0  0  0  0  0  0  0  0  0  0  0
  -38.5318   -2.1211    6.9002 C   0  0  0  0  0  0  0  0  0  0  0  0
  -39.6816   -3.9749    7.8155 N   0  0  0  0  0  0  0  0  0  0  0  0
  -41.3927  -13.2379   10.8090 C   0  0  0  0  0  0  0  0  0  0  0  0
  -38.4887  -10.0330    8.8441 C   0  0  0  0  0  0  0  0  0  0  0  0
  -41.6576  -10.5060    8.1976 O   0  0  0  0  0  0  0  0  0  0  0  0
  -40.8034   -6.0315    9.5166 C   0  0  0  0  0  0  0  0  0  0  0  0
  -39.5469  -11.5122   12.0259 C   0  0  0  0  0  0  0  0  0  0  0  0
  -40.0000   -9.1467   11.8924 O   0  0  0  0  0  0  0  0  0  0  0  0
  -38.8332   -9.4179    7.7293 C   0  0  0  0  0  0  0  0  0  0  0  0
  -39.2847   -4.3288    8.9649 C   0  0  0  0  0  0  0  0  0  0  0  0
  -40.0913  -12.5793   12.6268 C   0  0  0  0  0  0  0  0  0  0  0  0
  -43.3492  -10.8447    9.1831 C   0  0  0  0  0  0  0  0  0  0  0  0
  -39.0574  -10.3542   10.1597 C   0  0  0  0  0  0  0  0  0  0  0  0
  -41.8901  -11.1464    9.1715 C   0  0  0  0  0  0  0  0  0  0  0  0
  -40.9333  -13.5442   12.1190 C   0  0  0  0  0  0  0  0  0  0  0  0
  -40.0514   -4.2814    6.5951 C   0  0  0  0  0  0  0  0  0  0  0  0
  -40.0196   -2.3766    6.4850 S   0  0  0  0  0  0  0  0  0  0  0  0
  -41.6036   -8.5161    8.7596 N   0  0  0  0  0  0  0  0  0  0  0  0
  -39.7706   -7.9298    6.0022 C   0  0  0  0  0  0  0  0  0  0  0  0
  -40.1718   -5.8137    6.7693 C   0  0  0  0  0  0  0  0  0  0  0  0
  -41.4210   -8.1497    9.9557 N   0  0  0  0  0  0  0  0  0  0  0  0
  -40.5480   -6.5321    8.0741 C   0  0  0  0  0  0  0  0  0  0  0  0
  -41.2683   -7.0135   10.5182 C   0  0  0  0  0  0  0  0  0  0  0  0
  -38.3730   -0.6356    6.9792 C   0  0  0  0  0  0  0  0  0  0  0  0
  1  2  4  0
  1 26  1  0
  1 30  4  0
  2 17  1  0
  2 27  4  0
  3  8  1  0
  3 11  2  0
  3 22  1  0
  4 14  1  0
  4 18  1  0
  5  6  1  0
  5 15  1  0
  6 16  1  0
  6 21  1  0
  7 27  4  0
  7 28  4  0
  8 15  1  0
  8 21  2  0
  9 25  1  0
  9 32  1  0
 10 18  1  0
 10 24  1  0
 11 23  1  0
 12 17  2  3
 12 21  1  0
 13 22  2  0
 14 30  1  0
 14 31  1  0
 15 19  2  0
 19 23  1  0
 20 22  1  0
 24 25  1  0
 24 28  1  0
 26 29  1  0
 28 30  4  0
 29 31  2  0
M  END
$$$$
