
     RDKit          3D

 12 12  0  0  0  0  0  0  0  0999 V2000
   18.3602   -1.5357    1.9152 N   0  0  0  0  0  0  0  0  0  0  0  0
   19.3392   -0.4101    0.2077 O   0  0  0  0  0  0  0  0  0  0  0  0
   19.0502   -0.4822    1.4792 C   0  0  0  0  0  0  0  0  0  0  0  0
   22.3095    3.9419    5.0135 C   0  0  0  0  0  0  0  0  0  0  0  0
   19.6458    0.4790    2.1986 N   0  0  0  0  0  0  0  0  0  0  0  0
   19.6134    0.8109    3.5704 C   0  0  0  0  0  0  0  0  0  0  0  0
   21.0442    2.8647    3.2236 C   0  0  0  0  0  0  0  0  0  0  0  0
   18.8912    0.2800    4.4060 O   0  0  0  0  0  0  0  0  0  0  0  0
   21.8458    2.9855    5.9297 C   0  0  0  0  0  0  0  0  0  0  0  0
   21.9302    3.9153    3.6887 C   0  0  0  0  0  0  0  0  0  0  0  0
   20.9245    1.9103    5.4192 C   0  0  0  0  0  0  0  0  0  0  0  0
   20.5403    1.8547    4.0652 C   0  0  0  0  0  0  0  0  0  0  0  0
  1  3  1  0
  2  3  2  0
  3  5  1  0
  4  9  2  0
  4 10  1  0
  5  6  1  0
  6  8  2  0
  6 12  1  0
  7 10  2  0
  7 12  1  0
  9 11  1  0
 11 12  2  0
M  END
