
     RDKit          3D

 25 25  0  0  0  0  0  0  0  0999 V2000
   -8.8776  -48.5991  -16.6249 O   0  0  0  0  0  0  0  0  0  0  0  0
   -6.0355  -51.2877  -17.9767 C   0  0  0  0  0  0  0  0  0  0  0  0
   -8.8235  -48.2201  -20.9933 O   0  0  0  0  0  0  0  0  0  0  0  0
   -6.1202  -55.4723  -17.6131 C   0  0  0  0  0  0  0  0  0  0  0  0
   -6.1838  -58.0441  -16.6723 C   0  0  0  0  0  0  0  0  0  0  0  0
   -8.4848  -57.2115  -15.4883 C   0  0  0  0  0  0  0  0  0  0  0  0
   -4.1231  -54.1660  -18.8692 O   0  0  0  0  0  0  0  0  0  0  0  0
   -8.9125  -56.0193  -14.7998 O   0  0  0  0  0  0  0  0  0  0  0  0
   -5.0895  -53.3000  -18.4106 C   0  0  0  0  0  0  0  0  0  0  0  0
   -6.0959  -53.9808  -17.8114 C   0  0  0  0  0  0  0  0  0  0  0  0
   -8.0468  -48.0854  -19.7304 P   0  0  0  0  0  0  0  0  0  0  0  0
   -7.0688  -53.1875  -17.2439 C   0  0  0  0  0  0  0  0  0  0  0  0
   -5.2342  -57.6004  -17.4484 C   0  0  0  0  0  0  0  0  0  0  0  0
   -8.6774  -46.8363  -19.0389 O   0  0  0  0  0  0  0  0  0  0  0  0
   -7.1931  -55.9531  -16.9186 C   0  0  0  0  0  0  0  0  0  0  0  0
   -7.0175  -51.8411  -17.3641 C   0  0  0  0  0  0  0  0  0  0  0  0
  -10.9896  -48.2355  -18.3682 O   0  0  0  0  0  0  0  0  0  0  0  0
   -7.2422  -57.1503  -16.3240 C   0  0  0  0  0  0  0  0  0  0  0  0
  -10.0656  -50.6350  -17.8637 O   0  0  0  0  0  0  0  0  0  0  0  0
   -8.5348  -55.3889  -17.1049 O   0  0  0  0  0  0  0  0  0  0  0  0
   -9.6560  -49.1619  -17.8797 P   0  0  0  0  0  0  0  0  0  0  0  0
   -6.5825  -48.1021  -19.9151 O   0  0  0  0  0  0  0  0  0  0  0  0
   -8.6094  -49.3137  -19.0601 O   0  0  0  0  0  0  0  0  0  0  0  0
   -5.0245  -56.4032  -17.9324 C   0  0  0  0  0  0  0  0  0  0  0  0
   -5.1029  -52.0136  -18.5050 N   0  0  0  0  0  0  0  0  0  0  0  0
  1 21  1  0
  2 16  2  0
  2 25  1  0
  3 11  2  0
  4 10  1  0
  4 15  1  0
  4 24  2  0
  5 13  2  0
  5 18  1  0
  6  8  1  0
  6 18  1  0
  7  9  1  0
  9 10  1  0
  9 25  2  0
 10 12  2  0
 11 14  1  0
 11 22  1  0
 11 23  1  0
 12 16  1  0
 13 24  1  0
 15 18  2  0
 15 20  1  0
 17 21  2  0
 19 21  1  0
 21 23  1  0
M  END
$$$$
