
     RDKit          3D

 22 22  0  0  0  0  0  0  0  0999 V2000
   -6.5731  -54.3408  -17.0604 C   0  0  0  0  0  0  0  0  0  0  0  0
   -7.6503  -52.5312  -16.6538 N   0  0  0  0  0  0  0  0  0  0  0  0
   -6.0224  -53.2237  -17.6867 C   0  0  0  0  0  0  0  0  0  0  0  0
   -9.4768  -49.6200  -17.8526 O   0  0  0  0  0  0  0  0  0  0  0  0
  -10.1391  -49.5552  -17.4897 O   0  0  0  0  0  0  0  0  0  0  0  0
   -6.1790  -55.6939  -17.3072 C   0  0  0  0  0  0  0  0  0  0  0  0
   -8.8333  -49.7506  -17.7340 P   0  0  0  0  0  0  0  0  0  0  0  0
   -4.8689  -52.9250  -18.1004 O   0  0  0  0  0  0  0  0  0  0  0  0
   -7.4491  -50.0216  -18.8509 C   0  0  0  0  0  0  0  0  0  0  0  0
   -7.6426  -53.9297  -16.2799 C   0  0  0  0  0  0  0  0  0  0  0  0
   -6.9561  -52.1312  -17.9909 C   0  0  0  0  0  0  0  0  0  0  0  0
   -4.5252  -57.6367  -17.7388 N   0  0  0  0  0  0  0  0  0  0  0  0
   -8.8982  -47.2670  -17.6932 O   0  0  0  0  0  0  0  0  0  0  0  0
   -7.3389  -56.7313  -17.4052 C   0  0  0  0  0  0  0  0  0  0  0  0
   -7.1582  -47.2129  -19.3915 O   0  0  0  0  0  0  0  0  0  0  0  0
   -5.4846  -58.5694  -17.8714 C   0  0  0  0  0  0  0  0  0  0  0  0
   -6.2974  -50.7770  -18.1877 C   0  0  0  0  0  0  0  0  0  0  0  0
   -8.5454  -48.1717  -19.1646 P   0  0  0  0  0  0  0  0  0  0  0  0
   -6.7358  -58.1439  -17.7200 C   0  0  0  0  0  0  0  0  0  0  0  0
   -4.8556  -56.1812  -17.4349 C   0  0  0  0  0  0  0  0  0  0  0  0
   -9.6225  -48.1125  -20.1929 O   0  0  0  0  0  0  0  0  0  0  0  0
   -8.4789  -54.3084  -15.5389 O   0  0  0  0  0  0  0  0  0  0  0  0
  1  3  1  0
  1  6  1  0
  1 10  1  0
  2 10  1  0
  2 11  1  0
  3  8  2  0
  3 11  1  0
  4  7  1  0
  5  7  2  0
  6 14  2  0
  6 20  1  0
  7  9  1  0
  9 17  1  0
 10 22  2  0
 11 17  1  0
 12 16  1  0
 12 20  2  0
 13 18  1  0
 14 19  1  0
 15 18  1  0
 16 19  2  0
 18 21  2  0
M  END
$$$$
