
     RDKit          3D

 19 18  0  0  0  0  0  0  0  0999 V2000
   -9.1675  -51.3254  -17.0190 P   0  0  0  0  0  0  0  0  0  0  0  0
  -10.1488  -52.3497  -17.8583 O   0  0  0  0  0  0  0  0  0  0  0  0
   -7.8266  -51.7823  -16.7659 O   0  0  0  0  0  0  0  0  0  0  0  0
   -9.3488  -51.2564  -15.3631 O   0  0  0  0  0  0  0  0  0  0  0  0
   -9.6389  -47.7617  -17.6803 O   0  0  0  0  0  0  0  0  0  0  0  0
   -5.3866  -57.6961  -17.1880 C   0  0  0  0  0  0  0  0  0  0  0  0
   -6.5574  -53.0686  -19.3732 O   0  0  0  0  0  0  0  0  0  0  0  0
   -7.4913  -55.1312  -17.7746 C   0  0  0  0  0  0  0  0  0  0  0  0
   -9.7312  -48.8725  -20.1278 O   0  0  0  0  0  0  0  0  0  0  0  0
   -6.1533  -52.8634  -18.0546 C   0  0  0  0  0  0  0  0  0  0  0  0
   -5.4763  -59.1760  -17.0647 C   0  0  0  0  0  0  0  0  0  0  0  0
   -6.5875  -51.4728  -17.5470 C   0  0  0  0  0  0  0  0  0  0  0  0
   -6.4171  -57.0287  -16.4724 N   0  0  0  0  0  0  0  0  0  0  0  0
   -7.6660  -56.5496  -17.0209 C   0  0  0  0  0  0  0  0  0  0  0  0
   -4.4509  -57.1848  -17.7519 O   0  0  0  0  0  0  0  0  0  0  0  0
   -8.9096  -48.7345  -18.8123 P   0  0  0  0  0  0  0  0  0  0  0  0
   -7.3996  -48.3000  -19.1749 O   0  0  0  0  0  0  0  0  0  0  0  0
   -6.9662  -53.9378  -17.0881 C   0  0  0  0  0  0  0  0  0  0  0  0
   -9.1080  -49.9679  -18.0227 O   0  0  0  0  0  0  0  0  0  0  0  0
  1  2  1  0
  1  3  1  0
  1  4  1  0
  1 19  1  0
  3 12  1  0
  5 16  1  0
  6 11  1  0
  6 13  1  0
  6 15  2  0
  7 10  1  0
  8 14  1  0
  8 18  1  0
  9 16  2  0
 10 12  1  0
 10 18  1  0
 13 14  1  0
 16 17  1  0
 16 19  1  0
M  END
$$$$
