
     RDKit          3D

 20 20  0  0  0  0  0  0  0  0999 V2000
    7.9779   11.6950   30.2014 O   0  0  0  0  0  0  0  0  0  0  0  0
   12.0875   15.6290   39.2662 O   0  0  0  0  0  0  0  0  0  0  0  0
   10.0534   13.6090   33.8108 C   0  0  0  0  0  0  0  0  0  0  0  0
   13.0721   14.6788   37.3223 C   0  0  0  0  0  0  0  0  0  0  0  0
   11.5464   13.6360   34.1333 C   0  0  0  0  0  0  0  0  0  0  0  0
   16.8747   14.8751   37.6549 C   0  0  0  0  0  0  0  0  0  0  0  0
   17.0128   15.6912   38.7420 N   0  0  0  0  0  0  0  0  0  0  0  0
    9.7964   13.2708   32.3449 C   0  0  0  0  0  0  0  0  0  0  0  0
   17.8568   14.3729   37.1224 O   0  0  0  0  0  0  0  0  0  0  0  0
   11.9215   15.0102   38.2203 C   0  0  0  0  0  0  0  0  0  0  0  0
    8.0337   13.9083   29.7637 O   0  0  0  0  0  0  0  0  0  0  0  0
   10.6735   14.5997   37.8586 N   0  0  0  0  0  0  0  0  0  0  0  0
   15.3746   14.1281   35.8310 C   0  0  0  0  0  0  0  0  0  0  0  0
    8.3043   13.2212   32.0382 C   0  0  0  0  0  0  0  0  0  0  0  0
    8.0771   12.8460   30.5965 C   0  0  0  0  0  0  0  0  0  0  0  0
   11.6823   13.9800   35.5140 O   0  0  0  0  0  0  0  0  0  0  0  0
   14.1099   13.8957   35.2798 C   0  0  0  0  0  0  0  0  0  0  0  0
   14.3522   14.9084   37.8661 C   0  0  0  0  0  0  0  0  0  0  0  0
   15.5042   14.6468   37.1215 C   0  0  0  0  0  0  0  0  0  0  0  0
   12.9468   14.1762   36.0095 C   0  0  0  0  0  0  0  0  0  0  0  0
  1 15  2  0
  2 10  2  0
  3  5  1  0
  3  8  1  0
  4 10  1  0
  4 18  1  0
  4 20  2  0
  5 16  1  0
  6  7  1  0
  6  9  2  0
  6 19  1  0
  8 14  1  0
 10 12  1  0
 11 15  1  0
 13 17  2  0
 13 19  1  0
 14 15  1  0
 16 20  1  0
 17 20  1  0
 18 19  2  0
M  END
$$$$
