
     RDKit          3D

 22 23  0  0  0  0  0  0  0  0999 V2000
  -17.4548   -1.2587  -24.3184 C   0  0  0  0  0  0  0  0  0  0  0  0
  -14.2057    5.0257  -22.0014 C   0  0  0  0  0  0  0  0  0  0  0  0
  -12.5814    4.9210  -20.3041 C   0  0  0  0  0  0  0  0  0  0  0  0
  -16.9342    0.9716  -23.6327 N   0  0  0  0  0  0  0  0  0  0  0  0
   -9.2770    4.7219  -21.6446 O   0  0  0  0  0  0  0  0  0  0  0  0
  -16.2473   -1.6596  -24.0051 N   0  0  0  0  0  0  0  0  0  0  0  0
  -15.6442    0.6146  -23.2840 C   0  0  0  0  0  0  0  0  0  0  0  0
  -10.4678    3.2490  -19.8167 O   0  0  0  0  0  0  0  0  0  0  0  0
  -11.2934    5.4691  -20.3702 O   0  0  0  0  0  0  0  0  0  0  0  0
  -14.6813    1.4789  -22.7172 C   0  0  0  0  0  0  0  0  0  0  0  0
  -14.6664    4.1059  -22.8898 O   0  0  0  0  0  0  0  0  0  0  0  0
  -13.7263   -2.5284  -23.4631 N   0  0  0  0  0  0  0  0  0  0  0  0
   -9.9635    4.6118  -20.2339 P   0  0  0  0  0  0  0  0  0  0  0  0
  -13.1635   -0.3023  -22.7067 N   0  0  0  0  0  0  0  0  0  0  0  0
  -12.1905    3.9749  -22.3999 O   0  0  0  0  0  0  0  0  0  0  0  0
  -15.2741   -0.7848  -23.4943 C   0  0  0  0  0  0  0  0  0  0  0  0
  -15.0234    2.8706  -22.2171 C   0  0  0  0  0  0  0  0  0  0  0  0
  -13.4596    0.9516  -22.4778 C   0  0  0  0  0  0  0  0  0  0  0  0
  -14.0392   -1.1799  -23.1786 C   0  0  0  0  0  0  0  0  0  0  0  0
  -17.7918    0.0269  -24.1314 C   0  0  0  0  0  0  0  0  0  0  0  0
  -13.0383    4.6359  -21.6137 C   0  0  0  0  0  0  0  0  0  0  0  0
   -9.1177    5.4223  -19.1906 O   0  0  0  0  0  0  0  0  0  0  0  0
  1  6  1  0
  1 20  2  0
  2 11  1  0
  2 21  1  0
  3  9  1  0
  3 21  1  0
  4  7  2  0
  4 20  1  0
  5 13  1  0
  6 16  2  0
  7 10  1  0
  7 16  1  0
  8 13  1  0
  9 13  1  0
 10 17  1  0
 10 18  2  0
 11 17  1  0
 12 19  1  0
 13 22  2  0
 14 18  1  0
 14 19  2  0
 15 21  1  0
 16 19  1  0
M  END
$$$$
