
     RDKit          3D

 26 27  0  0  0  0  0  0  0  0999 V2000
  -15.0682    3.5885  -23.3816 O   0  0  0  0  0  0  0  0  0  0  0  0
  -14.3637    5.6464  -20.4809 O   0  0  0  0  0  0  0  0  0  0  0  0
  -13.0453   -0.0048  -22.6966 N   0  0  0  0  0  0  0  0  0  0  0  0
  -16.2074    5.5131  -22.4048 O   0  0  0  0  0  0  0  0  0  0  0  0
  -10.6844    3.4500  -19.5092 O   0  0  0  0  0  0  0  0  0  0  0  0
  -14.6095   -1.8234  -23.5480 C   0  0  0  0  0  0  0  0  0  0  0  0
   -8.7905    5.2130  -20.0332 O   0  0  0  0  0  0  0  0  0  0  0  0
  -11.2710    5.9971  -19.8660 O   0  0  0  0  0  0  0  0  0  0  0  0
  -10.2665    4.6909  -20.2590 P   0  0  0  0  0  0  0  0  0  0  0  0
   -9.1576    6.6629  -22.4924 O   0  0  0  0  0  0  0  0  0  0  0  0
  -16.4603    0.3117  -23.4539 N   0  0  0  0  0  0  0  0  0  0  0  0
  -14.9660    4.8618  -22.6526 C   0  0  0  0  0  0  0  0  0  0  0  0
  -14.0333    4.7782  -21.5836 C   0  0  0  0  0  0  0  0  0  0  0  0
  -13.7127   -2.8079  -23.4688 N   0  0  0  0  0  0  0  0  0  0  0  0
  -15.1669    0.4763  -23.0830 C   0  0  0  0  0  0  0  0  0  0  0  0
  -15.2100    2.7164  -22.3725 C   0  0  0  0  0  0  0  0  0  0  0  0
   -9.3161    5.1653  -22.7643 P   0  0  0  0  0  0  0  0  0  0  0  0
  -15.9095   -2.0542  -23.8493 N   0  0  0  0  0  0  0  0  0  0  0  0
  -16.7464   -0.9324  -23.8076 C   0  0  0  0  0  0  0  0  0  0  0  0
  -14.5419    3.5119  -21.2519 C   0  0  0  0  0  0  0  0  0  0  0  0
   -7.9567    4.3205  -22.4994 O   0  0  0  0  0  0  0  0  0  0  0  0
  -13.2729    1.2778  -22.3924 C   0  0  0  0  0  0  0  0  0  0  0  0
  -14.2090   -0.5039  -23.0904 C   0  0  0  0  0  0  0  0  0  0  0  0
  -10.4679    4.5853  -21.8399 O   0  0  0  0  0  0  0  0  0  0  0  0
  -14.5056    1.5794  -22.6592 N   0  0  0  0  0  0  0  0  0  0  0  0
   -9.7777    4.9967  -24.1943 O   0  0  0  0  0  0  0  0  0  0  0  0
  1 12  1  0
  1 16  1  0
  2 13  1  0
  3 22  2  0
  3 23  1  0
  4 12  1  0
  5  9  1  0
  6 14  1  0
  6 18  1  0
  6 23  2  0
  7  9  2  0
  8  9  1  0
  9 24  1  0
 10 17  1  0
 11 15  2  0
 11 19  1  0
 12 13  1  0
 13 20  1  0
 15 23  1  0
 15 25  1  0
 16 20  1  0
 16 25  1  0
 17 21  1  0
 17 24  1  0
 17 26  2  0
 18 19  2  0
 22 25  1  0
M  END
$$$$
