
     RDKit          3D

 27 29  0  0  0  0  0  0  0  0999 V2000
  -17.0484   -1.4110  -24.0608 C   0  0  0  0  0  0  0  0  0  0  0  0
  -14.5313    4.3061  -22.3225 C   0  0  0  0  0  0  0  0  0  0  0  0
   -9.7396    5.2660  -23.5009 O   0  0  0  0  0  0  0  0  0  0  0  0
  -10.6525    3.2828  -19.5404 O   0  0  0  0  0  0  0  0  0  0  0  0
  -14.6896    1.0301  -23.0861 N   0  0  0  0  0  0  0  0  0  0  0  0
   -9.4800    5.3830  -21.9605 P   0  0  0  0  0  0  0  0  0  0  0  0
  -15.4467    0.0092  -23.5012 C   0  0  0  0  0  0  0  0  0  0  0  0
  -11.5541    4.5592  -20.0646 P   0  0  0  0  0  0  0  0  0  0  0  0
  -16.7753   -0.1305  -23.8068 N   0  0  0  0  0  0  0  0  0  0  0  0
  -15.9556    4.6449  -20.2156 O   0  0  0  0  0  0  0  0  0  0  0  0
  -13.3432   -2.7122  -23.2398 N   0  0  0  0  0  0  0  0  0  0  0  0
  -15.2737    3.6534  -21.1907 C   0  0  0  0  0  0  0  0  0  0  0  0
  -15.9660   -2.1406  -23.9199 N   0  0  0  0  0  0  0  0  0  0  0  0
  -11.2186    6.0366  -19.7190 O   0  0  0  0  0  0  0  0  0  0  0  0
  -13.4644    0.7371  -22.8223 C   0  0  0  0  0  0  0  0  0  0  0  0
  -15.2995    2.3541  -23.0920 C   0  0  0  0  0  0  0  0  0  0  0  0
  -12.9709   -0.4868  -22.8626 N   0  0  0  0  0  0  0  0  0  0  0  0
   -8.4223    4.4283  -21.7809 O   0  0  0  0  0  0  0  0  0  0  0  0
  -13.7348   -1.5223  -23.3053 C   0  0  0  0  0  0  0  0  0  0  0  0
  -14.4026    3.3183  -23.4354 O   0  0  0  0  0  0  0  0  0  0  0  0
  -12.8688    4.1098  -20.6656 O   0  0  0  0  0  0  0  0  0  0  0  0
  -17.4738    3.1961  -22.1287 O   0  0  0  0  0  0  0  0  0  0  0  0
   -8.7837    6.4585  -21.5017 O   0  0  0  0  0  0  0  0  0  0  0  0
  -15.0205   -1.2940  -23.5526 C   0  0  0  0  0  0  0  0  0  0  0  0
  -13.3212    4.6344  -21.9673 C   0  0  0  0  0  0  0  0  0  0  0  0
  -10.5335    4.2615  -21.1778 O   0  0  0  0  0  0  0  0  0  0  0  0
  -16.0785    2.6959  -21.8238 C   0  0  0  0  0  0  0  0  0  0  0  0
  1  9  1  0
  1 13  2  0
  2 12  1  0
  2 20  1  0
  2 25  1  0
  3  6  1  0
  4  8  1  0
  5  7  1  0
  5 15  1  0
  5 16  1  0
  6 18  2  0
  6 23  1  0
  6 26  1  0
  7  9  2  0
  7 24  1  0
  8 14  2  0
  8 21  1  0
  8 26  1  0
 10 12  1  0
 11 19  1  0
 12 27  1  0
 13 24  1  0
 15 17  2  0
 16 20  1  0
 16 27  1  0
 17 19  1  0
 19 24  2  0
 21 25  1  0
 22 27  1  0
M  END
$$$$
