
     RDKit          3D

 20 22  0  0  0  0  0  0  0  0999 V2000
  -13.1302    1.3786  -22.2899 C   0  0  0  0  0  0  0  0  0  0  0  0
  -14.4120    3.8864  -21.8624 C   0  0  0  0  0  0  0  0  0  0  0  0
  -16.2664   -0.0597  -23.3927 N   0  0  0  0  0  0  0  0  0  0  0  0
  -12.4554    0.1946  -22.4044 N   0  0  0  0  0  0  0  0  0  0  0  0
   -8.4782    5.2024  -21.2112 O   0  0  0  0  0  0  0  0  0  0  0  0
  -13.0728    3.7925  -21.5757 C   0  0  0  0  0  0  0  0  0  0  0  0
   -9.7423    4.9206  -20.3969 P   0  0  0  0  0  0  0  0  0  0  0  0
  -16.2001   -1.3858  -23.7281 C   0  0  0  0  0  0  0  0  0  0  0  0
   -9.6821    3.5293  -19.7753 O   0  0  0  0  0  0  0  0  0  0  0  0
  -12.2728    4.9189  -21.0374 C   0  0  0  0  0  0  0  0  0  0  0  0
  -17.2311   -2.0032  -24.1931 N   0  0  0  0  0  0  0  0  0  0  0  0
  -14.5181    1.4803  -22.5539 C   0  0  0  0  0  0  0  0  0  0  0  0
  -12.4259    2.5067  -21.8201 C   0  0  0  0  0  0  0  0  0  0  0  0
  -12.9670   -0.9808  -22.8160 C   0  0  0  0  0  0  0  0  0  0  0  0
  -15.0324   -1.9937  -23.5833 N   0  0  0  0  0  0  0  0  0  0  0  0
  -14.3029   -1.0211  -23.1336 C   0  0  0  0  0  0  0  0  0  0  0  0
  -10.9170    4.8608  -21.4326 O   0  0  0  0  0  0  0  0  0  0  0  0
  -15.0730    0.2687  -22.9884 C   0  0  0  0  0  0  0  0  0  0  0  0
  -10.0567    5.9492  -19.3847 O   0  0  0  0  0  0  0  0  0  0  0  0
  -15.1641    2.7397  -22.3478 C   0  0  0  0  0  0  0  0  0  0  0  0
  1  4  2  0
  1 12  1  0
  1 13  1  0
  2  6  1  0
  2 20  2  0
  3  8  1  0
  3 18  1  0
  4 14  1  0
  5  7  2  0
  6 10  1  0
  6 13  2  0
  7  9  1  0
  7 17  1  0
  7 19  1  0
  8 11  1  0
  8 15  2  0
 10 17  1  0
 12 18  2  0
 12 20  1  0
 14 16  2  0
 15 16  1  0
 16 18  1  0
M  END
$$$$
