
     RDKit          3D

 20 22  0  0  0  0  0  0  0  0999 V2000
  -11.5551    4.8488  -22.1244 O   0  0  0  0  0  0  0  0  0  0  0  0
  -14.5492    1.7763  -22.5423 C   0  0  0  0  0  0  0  0  0  0  0  0
  -10.3470    5.7203  -19.5190 O   0  0  0  0  0  0  0  0  0  0  0  0
  -11.1962    3.6718  -20.3135 N   0  0  0  0  0  0  0  0  0  0  0  0
  -14.8146    0.4075  -22.9674 C   0  0  0  0  0  0  0  0  0  0  0  0
  -13.2486    3.2612  -21.7506 C   0  0  0  0  0  0  0  0  0  0  0  0
  -14.4073    3.7808  -21.8655 C   0  0  0  0  0  0  0  0  0  0  0  0
  -16.7919   -1.9816  -24.2691 N   0  0  0  0  0  0  0  0  0  0  0  0
  -17.6271   -0.9046  -24.4008 C   0  0  0  0  0  0  0  0  0  0  0  0
  -15.8707   -0.2045  -23.5161 N   0  0  0  0  0  0  0  0  0  0  0  0
  -15.2735    2.8869  -22.3634 C   0  0  0  0  0  0  0  0  0  0  0  0
  -15.7230   -1.4542  -23.7377 C   0  0  0  0  0  0  0  0  0  0  0  0
  -11.9693    3.9835  -21.3790 C   0  0  0  0  0  0  0  0  0  0  0  0
  -13.9003   -0.7985  -22.7836 C   0  0  0  0  0  0  0  0  0  0  0  0
  -13.2605    2.0399  -22.1171 O   0  0  0  0  0  0  0  0  0  0  0  0
  -16.9652    0.1568  -23.9086 N   0  0  0  0  0  0  0  0  0  0  0  0
  -14.4179   -1.9408  -23.2646 C   0  0  0  0  0  0  0  0  0  0  0  0
   -8.9729    4.5344  -21.2032 O   0  0  0  0  0  0  0  0  0  0  0  0
   -9.8473    4.3568  -20.0279 S   0  0  0  0  0  0  0  0  0  0  0  0
   -9.1936    3.7778  -18.8933 O   0  0  0  0  0  0  0  0  0  0  0  0
  1 13  2  0
  2  5  1  0
  2 11  4  0
  2 15  4  0
  3 19  1  0
  4 13  1  0
  4 19  1  0
  5 10  4  0
  5 14  4  0
  6  7  4  0
  6 13  1  0
  6 15  4  0
  7 11  4  0
  8  9  4  0
  8 12  4  0
  9 16  4  0
 10 12  1  0
 10 16  4  0
 12 17  4  0
 14 17  4  0
 18 19  1  0
 19 20  1  0
M  END
$$$$
