
     RDKit          3D

 26 28  0  0  0  0  0  0  0  0999 V2000
  -13.6117   -0.0017  -22.6921 N   0  0  0  0  0  0  0  0  0  0  0  0
  -14.4308   -2.6979  -23.6670 N   0  0  0  0  0  0  0  0  0  0  0  0
   -9.6318    5.5747  -23.7509 O   0  0  0  0  0  0  0  0  0  0  0  0
  -10.5667    5.6291  -19.3028 O   0  0  0  0  0  0  0  0  0  0  0  0
  -13.8008    1.3140  -22.3602 C   0  0  0  0  0  0  0  0  0  0  0  0
  -15.5061    4.1084  -23.2420 C   0  0  0  0  0  0  0  0  0  0  0  0
  -10.2079    3.0729  -19.8323 O   0  0  0  0  0  0  0  0  0  0  0  0
  -10.7102    4.7215  -21.7170 O   0  0  0  0  0  0  0  0  0  0  0  0
  -16.9999    0.4734  -23.6259 N   0  0  0  0  0  0  0  0  0  0  0  0
  -17.3466   -0.7264  -24.0712 C   0  0  0  0  0  0  0  0  0  0  0  0
  -16.5022   -1.7566  -24.0911 N   0  0  0  0  0  0  0  0  0  0  0  0
   -8.8835    6.4905  -21.5767 O   0  0  0  0  0  0  0  0  0  0  0  0
  -15.7252    0.6473  -23.1722 C   0  0  0  0  0  0  0  0  0  0  0  0
  -12.3688    4.1034  -20.1764 O   0  0  0  0  0  0  0  0  0  0  0  0
  -15.0869    1.6888  -22.6584 N   0  0  0  0  0  0  0  0  0  0  0  0
  -16.4008    5.2250  -22.7903 O   0  0  0  0  0  0  0  0  0  0  0  0
  -15.7120    2.9539  -22.2608 C   0  0  0  0  0  0  0  0  0  0  0  0
   -8.2867    4.2421  -22.0803 O   0  0  0  0  0  0  0  0  0  0  0  0
  -14.7994   -0.4146  -23.1725 C   0  0  0  0  0  0  0  0  0  0  0  0
   -9.4358    5.3343  -22.2781 P   0  0  0  0  0  0  0  0  0  0  0  0
  -14.5927    4.7178  -21.2578 C   0  0  0  0  0  0  0  0  0  0  0  0
  -14.3523    4.8823  -22.6438 C   0  0  0  0  0  0  0  0  0  0  0  0
  -13.3464    5.1378  -20.4589 C   0  0  0  0  0  0  0  0  0  0  0  0
  -10.7584    4.4257  -20.1668 P   0  0  0  0  0  0  0  0  0  0  0  0
  -15.1204    3.3705  -21.0853 O   0  0  0  0  0  0  0  0  0  0  0  0
  -15.2261   -1.6454  -23.6635 C   0  0  0  0  0  0  0  0  0  0  0  0
  1  5  2  0
  1 19  1  0
  2 26  1  0
  3 20  1  0
  4 24  1  0
  5 15  1  0
  6 16  1  0
  6 17  1  0
  6 22  1  0
  7 24  2  0
  8 20  1  0
  8 24  1  0
  9 10  1  0
  9 13  2  0
 10 11  2  0
 11 26  1  0
 12 20  2  0
 13 15  1  0
 13 19  1  0
 14 23  1  0
 14 24  1  0
 15 17  1  0
 17 25  1  0
 18 20  1  0
 19 26  2  0
 21 22  1  0
 21 23  1  0
 21 25  1  0
M  END
$$$$
