
     RDKit          3D

 22 24  0  0  0  0  0  0  0  0999 V2000
   62.8691   99.8684   28.7299 C   0  0  0  0  0  0  0  0  0  0  0  0
   62.6178   95.6113   31.9147 O   0  0  0  0  0  0  0  0  0  0  0  0
   62.0279   98.2023   26.0946 O   0  0  0  0  0  0  0  0  0  0  0  0
   61.6900   97.3352   29.5709 O   0  0  0  0  0  0  0  0  0  0  0  0
   66.6907   97.6173   30.7495 N   0  0  0  0  0  0  0  0  0  0  0  0
   62.1569  100.0446   27.4231 C   0  0  0  0  0  0  0  0  0  0  0  0
   68.5168   99.7513   28.3702 O   0  0  0  0  0  0  0  0  0  0  0  0
   65.3334   97.7467   30.1591 C   0  0  0  0  0  0  0  0  0  0  0  0
   63.7838   97.1577   30.4641 C   0  0  0  0  0  0  0  0  0  0  0  0
   62.8361   99.1871   26.5378 C   0  0  0  0  0  0  0  0  0  0  0  0
   67.7138   98.2890   30.1446 C   0  0  0  0  0  0  0  0  0  0  0  0
   65.0720   98.4506   29.1296 N   0  0  0  0  0  0  0  0  0  0  0  0
   61.8603  100.1223   29.6621 O   0  0  0  0  0  0  0  0  0  0  0  0
   68.9387   99.2754   27.2137 C   0  0  0  0  0  0  0  0  0  0  0  0
   62.0282  101.4057   27.0699 O   0  0  0  0  0  0  0  0  0  0  0  0
   67.4565   99.1110   28.9920 C   0  0  0  0  0  0  0  0  0  0  0  0
   63.6689   98.5184   28.6009 C   0  0  0  0  0  0  0  0  0  0  0  0
   63.0092   97.2562   29.2054 C   0  0  0  0  0  0  0  0  0  0  0  0
   68.8883   98.2794   30.4436 O   0  0  0  0  0  0  0  0  0  0  0  0
   63.7662   95.8320   31.0726 C   0  0  0  0  0  0  0  0  0  0  0  0
   63.9697   98.5447   27.1521 O   0  0  0  0  0  0  0  0  0  0  0  0
   66.2400   99.2089   28.4581 C   0  0  0  0  0  0  0  0  0  0  0  0
  1  6  1  0
  1 13  1  0
  1 17  1  0
  2 20  1  0
  3 10  1  0
  4 18  1  0
  5  8  2  0
  5 11  1  0
  6 10  1  0
  6 15  1  0
  7 14  1  0
  7 16  1  0
  8  9  1  0
  8 12  1  0
  9 18  1  0
  9 20  1  0
 10 21  1  0
 11 16  1  0
 11 19  2  0
 12 17  1  0
 12 22  1  0
 16 22  2  0
 17 18  1  0
 17 21  1  0
M  END
$$$$
