
     RDKit          3D

 26 27  0  0  0  0  0  0  0  0999 V2000
   64.1626   99.1255   27.7522 C   0  0  0  0  0  0  0  0  0  0  0  0
   62.5667   97.8280   31.9751 O   0  0  0  0  0  0  0  0  0  0  0  0
   64.0478   97.9231   28.7953 C   0  0  0  0  0  0  0  0  0  0  0  0
   62.9812   99.8125   31.2993 O   0  0  0  0  0  0  0  0  0  0  0  0
   62.5983  100.6726   26.4854 C   0  0  0  0  0  0  0  0  0  0  0  0
   61.4184  101.4146   26.7995 O   0  0  0  0  0  0  0  0  0  0  0  0
   67.8930   95.5692   30.3424 C   0  0  0  0  0  0  0  0  0  0  0  0
   62.6643   98.0852   29.4940 C   0  0  0  0  0  0  0  0  0  0  0  0
   66.3367   98.5259   29.9549 C   0  0  0  0  0  0  0  0  0  0  0  0
   61.8800   99.1091   28.6482 C   0  0  0  0  0  0  0  0  0  0  0  0
   65.1576   99.0616   26.7340 O   0  0  0  0  0  0  0  0  0  0  0  0
   66.6181   95.5395   28.0266 C   0  0  0  0  0  0  0  0  0  0  0  0
   67.9074   95.1603   27.3607 C   0  0  0  0  0  0  0  0  0  0  0  0
   62.0530   96.8099   29.4930 O   0  0  0  0  0  0  0  0  0  0  0  0
   65.1999   97.5870   29.6830 N   0  0  0  0  0  0  0  0  0  0  0  0
   62.3229   98.2649   26.3024 O   0  0  0  0  0  0  0  0  0  0  0  0
   60.4606   98.7953   28.4652 O   0  0  0  0  0  0  0  0  0  0  0  0
   69.1120   95.1819   29.6515 C   0  0  0  0  0  0  0  0  0  0  0  0
   65.9339  100.0135   30.0587 C   0  0  0  0  0  0  0  0  0  0  0  0
   67.8961   95.7912   31.8522 C   0  0  0  0  0  0  0  0  0  0  0  0
   67.9660   95.0081   25.8377 C   0  0  0  0  0  0  0  0  0  0  0  0
   62.6699   99.3083   27.2689 C   0  0  0  0  0  0  0  0  0  0  0  0
   65.3600   96.2203   30.1051 C   0  0  0  0  0  0  0  0  0  0  0  0
   62.7512   98.5964   31.0021 C   0  0  0  0  0  0  0  0  0  0  0  0
   66.6349   95.7242   29.5122 C   0  0  0  0  0  0  0  0  0  0  0  0
   69.1168   94.9765   28.2132 C   0  0  0  0  0  0  0  0  0  0  0  0
  1  3  1  0
  1 11  1  0
  1 22  1  0
  2 24  1  0
  3  8  1  0
  3 15  1  0
  4 24  2  0
  5  6  1  0
  5 22  1  0
  7 18  1  0
  7 20  1  0
  7 25  2  0
  8 10  1  0
  8 14  1  0
  8 24  1  0
  9 15  1  0
  9 19  1  0
 10 17  1  0
 10 22  1  0
 12 13  2  0
 12 25  1  0
 13 21  1  0
 13 26  1  0
 15 23  1  0
 16 22  1  0
 18 26  2  0
 23 25  1  0
M  END
$$$$
