
     RDKit          3D

 21 22  0  0  0  0  0  0  0  0999 V2000
   62.4560   98.1145   29.0473 C   0  0  0  0  0  0  0  0  0  0  0  0
   65.8200   98.7948   29.6235 C   0  0  0  0  0  0  0  0  0  0  0  0
   68.0996   96.9299   27.2695 C   0  0  0  0  0  0  0  0  0  0  0  0
   65.6405   98.4164   31.1805 C   0  0  0  0  0  0  0  0  0  0  0  0
   68.2865   98.9627   29.8120 O   0  0  0  0  0  0  0  0  0  0  0  0
   61.8078   97.1024   31.0314 C   0  0  0  0  0  0  0  0  0  0  0  0
   64.5911   99.1915   31.8879 O   0  0  0  0  0  0  0  0  0  0  0  0
   60.2903   99.2962   28.6114 O   0  0  0  0  0  0  0  0  0  0  0  0
   64.8877   98.1064   28.5701 N   0  0  0  0  0  0  0  0  0  0  0  0
   67.2010   98.1096   27.6956 C   0  0  0  0  0  0  0  0  0  0  0  0
   62.2161   98.1343   26.3722 O   0  0  0  0  0  0  0  0  0  0  0  0
   60.6631   97.9810   30.5707 C   0  0  0  0  0  0  0  0  0  0  0  0
   63.5240   98.7143   28.2589 C   0  0  0  0  0  0  0  0  0  0  0  0
   67.4857   99.3559   26.9831 O   0  0  0  0  0  0  0  0  0  0  0  0
   65.6514   97.8498   27.4185 C   0  0  0  0  0  0  0  0  0  0  0  0
   61.2777   98.9364   29.5873 C   0  0  0  0  0  0  0  0  0  0  0  0
   61.9033  101.1920   27.1379 O   0  0  0  0  0  0  0  0  0  0  0  0
   62.8401  100.5251   26.3642 C   0  0  0  0  0  0  0  0  0  0  0  0
   62.8592   97.1812   30.0862 O   0  0  0  0  0  0  0  0  0  0  0  0
   67.1865   98.1909   29.2370 C   0  0  0  0  0  0  0  0  0  0  0  0
   63.1905   99.0762   26.8297 C   0  0  0  0  0  0  0  0  0  0  0  0
  1 13  1  0
  1 16  1  0
  1 19  1  0
  2  4  1  0
  2  9  1  0
  2 20  1  0
  3 10  1  0
  4  7  1  0
  5 20  1  0
  6 12  1  0
  6 19  1  0
  8 16  1  0
  9 13  1  0
  9 15  1  0
 10 14  1  0
 10 15  1  0
 10 20  1  0
 11 21  1  0
 12 16  1  0
 13 21  1  0
 17 18  1  0
 18 21  1  0
M  END
$$$$
