
     RDKit          3D

 17 18  0  0  0  0  0  0  0  0999 V2000
   31.8096  -11.0253  -73.6773 C   0  0  0  0  0  0  0  0  0  0  0  0
   31.9486   -7.3485  -73.1337 C   0  0  0  0  0  0  0  0  0  0  0  0
   31.2593   -7.2440  -68.2612 C   0  0  0  0  0  0  0  0  0  0  0  0
   32.1056   -8.6574  -73.7653 C   0  0  0  0  0  0  0  0  0  0  0  0
   32.6171   -8.8086  -74.8352 O   0  0  0  0  0  0  0  0  0  0  0  0
   29.9662   -8.3590  -69.9539 C   0  0  0  0  0  0  0  0  0  0  0  0
   31.8276   -7.4826  -66.9353 C   0  0  0  0  0  0  0  0  0  0  0  0
   31.3298   -7.2237  -71.9400 C   0  0  0  0  0  0  0  0  0  0  0  0
   30.9912   -9.5647  -71.9021 C   0  0  0  0  0  0  0  0  0  0  0  0
   30.1715   -8.1881  -68.6121 N   0  0  0  0  0  0  0  0  0  0  0  0
   30.1198   -9.0468  -66.3419 C   0  0  0  0  0  0  0  0  0  0  0  0
   31.6327   -9.7079  -73.0889 N   0  0  0  0  0  0  0  0  0  0  0  0
   28.8690   -8.9970  -70.1744 O   0  0  0  0  0  0  0  0  0  0  0  0
   30.7725   -7.7824  -65.9529 C   0  0  0  0  0  0  0  0  0  0  0  0
   31.2343   -5.9649  -71.3441 N   0  0  0  0  0  0  0  0  0  0  0  0
   29.3893   -8.8337  -67.5784 C   0  0  0  0  0  0  0  0  0  0  0  0
   30.8191   -8.3156  -71.3390 C   0  0  0  0  0  0  0  0  0  0  0  0
  1 12  1  0
  2  4  1  0
  2  8  2  0
  3  7  1  0
  3 10  1  0
  4  5  2  0
  4 12  1  0
  6 10  1  0
  6 13  2  0
  6 17  1  0
  7 14  1  0
  8 15  1  0
  8 17  1  0
  9 12  1  0
  9 17  2  0
 10 16  1  0
 11 14  1  0
 11 16  1  0
M  END
$$$$
