
     RDKit          3D

 19 21  0  0  0  0  0  0  0  0999 V2000
   32.1537   -9.2504  -74.1840 C   0  0  0  0  0  0  0  0  0  0  0  0
   28.5021   -8.6288  -65.8392 N   0  0  0  0  0  0  0  0  0  0  0  0
   31.7558  -11.4937  -73.7176 C   0  0  0  0  0  0  0  0  0  0  0  0
   27.8562   -7.6854  -66.7536 C   0  0  0  0  0  0  0  0  0  0  0  0
   32.5660   -9.5750  -75.1807 O   0  0  0  0  0  0  0  0  0  0  0  0
   29.2932   -9.0400  -70.0568 N   0  0  0  0  0  0  0  0  0  0  0  0
   27.6902   -8.3546  -68.1539 C   0  0  0  0  0  0  0  0  0  0  0  0
   30.8694   -6.0785  -71.0761 C   0  0  0  0  0  0  0  0  0  0  0  0
   31.4958   -6.3731  -72.2241 N   0  0  0  0  0  0  0  0  0  0  0  0
   32.1357   -7.9998  -73.7342 N   0  0  0  0  0  0  0  0  0  0  0  0
   30.9671   -9.8579  -72.1640 N   0  0  0  0  0  0  0  0  0  0  0  0
   30.1069   -8.1436  -70.7097 C   0  0  0  0  0  0  0  0  0  0  0  0
   29.7907   -9.0460  -66.3253 C   0  0  0  0  0  0  0  0  0  0  0  0
   30.1502   -6.8714  -70.3809 N   0  0  0  0  0  0  0  0  0  0  0  0
   28.9333   -8.8917  -68.6724 C   0  0  0  0  0  0  0  0  0  0  0  0
   31.5020   -7.6434  -72.5753 C   0  0  0  0  0  0  0  0  0  0  0  0
   31.5933  -10.0955  -73.2883 C   0  0  0  0  0  0  0  0  0  0  0  0
   29.7545   -9.6535  -67.6789 C   0  0  0  0  0  0  0  0  0  0  0  0
   30.8389   -8.5741  -71.8581 C   0  0  0  0  0  0  0  0  0  0  0  0
  1  5  2  0
  1 10  1  0
  1 17  1  0
  2  4  1  0
  2 13  1  0
  3 17  1  0
  4  7  1  0
  6 12  1  0
  6 15  1  0
  7 15  1  0
  8  9  1  0
  8 14  2  0
  9 16  2  0
 10 16  1  0
 11 17  2  0
 11 19  1  0
 12 14  1  0
 12 19  1  0
 13 18  1  0
 15 18  1  0
 16 19  1  0
M  END
$$$$
