
     RDKit          3D

 23 25  0  0  0  0  0  0  0  0999 V2000
    3.3521   23.3745   10.5339 C   0  0  0  0  0  0  0  0  0  0  0  0
    4.1107   25.4302   13.0103 N   0  0  0  0  0  0  0  0  0  0  0  0
    5.4251   22.9877   11.7222 N   0  0  0  0  0  0  0  0  0  0  0  0
    5.2496   23.7541   14.0561 C   0  0  0  0  0  0  0  0  0  0  0  0
    2.6170   23.3439   11.6780 N   0  0  0  0  0  0  0  0  0  0  0  0
    2.8673   27.3843   14.1355 C   0  0  0  0  0  0  0  0  0  0  0  0
    3.3062   26.6476   12.9529 C   0  0  0  0  0  0  0  0  0  0  0  0
    3.4085   23.4643    8.1879 N   0  0  0  0  0  0  0  0  0  0  0  0
    3.6958   26.5709   10.5607 O   0  0  0  0  0  0  0  0  0  0  0  0
    6.6842   23.9756   13.7877 O   0  0  0  0  0  0  0  0  0  0  0  0
    1.4396   23.5644    9.1692 O   0  0  0  0  0  0  0  0  0  0  0  0
    3.2764   23.1571   12.9438 C   0  0  0  0  0  0  0  0  0  0  0  0
    4.0258   25.6838   15.3373 N   0  0  0  0  0  0  0  0  0  0  0  0
    5.4163   23.2375    9.3817 C   0  0  0  0  0  0  0  0  0  0  0  0
    3.2679   26.7907   15.3160 C   0  0  0  0  0  0  0  0  0  0  0  0
    3.0144   26.9656   11.4946 C   0  0  0  0  0  0  0  0  0  0  0  0
    1.9858   27.7027   11.2957 O   0  0  0  0  0  0  0  0  0  0  0  0
    4.4937   25.1012   14.2292 C   0  0  0  0  0  0  0  0  0  0  0  0
    2.6378   23.4758    9.3265 C   0  0  0  0  0  0  0  0  0  0  0  0
    4.7520   23.3715    8.1971 C   0  0  0  0  0  0  0  0  0  0  0  0
    4.7359   23.2425   10.5899 C   0  0  0  0  0  0  0  0  0  0  0  0
    2.8653   27.3474   16.6189 C   0  0  0  0  0  0  0  0  0  0  0  0
    4.7079   22.7626   12.9384 C   0  0  0  0  0  0  0  0  0  0  0  0
  1  5  1  0
  1 19  1  0
  1 21  2  0
  2  7  2  0
  2 18  1  0
  3 21  1  0
  3 23  1  0
  4 10  1  0
  4 18  1  0
  4 23  1  0
  5 12  1  0
  6  7  1  0
  6 15  2  0
  7 16  1  0
  8 19  1  0
  8 20  1  0
  9 16  2  0
 11 19  2  0
 12 23  1  0
 13 15  1  0
 13 18  2  0
 14 20  2  0
 14 21  1  0
 15 22  1  0
 16 17  1  0
M  END
$$$$
