
     RDKit          3D

 28 32  0  0  0  0  0  0  0  0999 V2000
    1.8990   23.5336    8.5112 C   0  0  0  0  0  0  0  0  0  0  0  0
    1.9137   27.3006   13.6631 N   0  0  0  0  0  0  0  0  0  0  0  0
    3.8494   24.4386    9.5664 C   0  0  0  0  0  0  0  0  0  0  0  0
    4.2640   22.7467   12.6007 C   0  0  0  0  0  0  0  0  0  0  0  0
    4.7093   23.4578    9.0806 C   0  0  0  0  0  0  0  0  0  0  0  0
    6.5647   22.1222   12.9922 C   0  0  0  0  0  0  0  0  0  0  0  0
    4.3707   25.6813   10.1598 C   0  0  0  0  0  0  0  0  0  0  0  0
    2.9035   24.7992   16.3093 N   0  0  0  0  0  0  0  0  0  0  0  0
    3.8371   24.1166   15.4736 C   0  0  0  0  0  0  0  0  0  0  0  0
    7.3843   24.2316   13.7227 O   0  0  0  0  0  0  0  0  0  0  0  0
    3.9673   28.0941    9.7380 C   0  0  0  0  0  0  0  0  0  0  0  0
    4.1533   22.5006    8.2570 C   0  0  0  0  0  0  0  0  0  0  0  0
    2.2138   25.8816   15.7644 C   0  0  0  0  0  0  0  0  0  0  0  0
    4.4173   25.4900   11.6494 C   0  0  0  0  0  0  0  0  0  0  0  0
    1.3376   26.5835   16.5323 N   0  0  0  0  0  0  0  0  0  0  0  0
    3.3727   26.1278   12.4817 C   0  0  0  0  0  0  0  0  0  0  0  0
    5.2028   21.5432   12.7016 C   0  0  0  0  0  0  0  0  0  0  0  0
    4.0372   24.5540   14.1727 C   0  0  0  0  0  0  0  0  0  0  0  0
    2.4667   24.5006    9.3179 C   0  0  0  0  0  0  0  0  0  0  0  0
    5.0508   23.8973   13.1987 C   0  0  0  0  0  0  0  0  0  0  0  0
    3.2940   25.6150   13.7012 N   0  0  0  0  0  0  0  0  0  0  0  0
    2.7799   22.5534    8.0187 C   0  0  0  0  0  0  0  0  0  0  0  0
    3.5201   26.7603    9.7806 O   0  0  0  0  0  0  0  0  0  0  0  0
    7.3396   21.1304   13.6472 O   0  0  0  0  0  0  0  0  0  0  0  0
    2.5445   27.1922   12.3854 N   0  0  0  0  0  0  0  0  0  0  0  0
    2.4430   26.3197   14.4294 C   0  0  0  0  0  0  0  0  0  0  0  0
    5.5324   24.8604   12.2088 O   0  0  0  0  0  0  0  0  0  0  0  0
    6.2752   23.3113   13.8665 C   0  0  0  0  0  0  0  0  0  0  0  0
  1 19  1  0
  1 22  2  0
  2 25  1  0
  2 26  2  0
  3  5  1  0
  3  7  1  0
  3 19  2  0
  4 17  1  0
  4 20  1  0
  5 12  2  0
  6 17  1  0
  6 24  1  0
  6 28  1  0
  7 14  1  0
  7 23  1  0
  8  9  1  0
  8 13  2  0
  9 18  2  0
 10 28  1  0
 11 23  1  0
 12 22  1  0
 13 15  1  0
 13 26  1  0
 14 16  1  0
 14 27  1  0
 16 21  1  0
 16 25  2  0
 18 20  1  0
 18 21  1  0
 20 27  1  0
 20 28  1  0
 21 26  1  0
M  END
$$$$
