
     RDKit          3D

 21 24  0  0  0  0  0  0  0  0999 V2000
   52.7584   16.2522   82.8835 C   0  0  0  0  0  0  0  0  0  0  0  0
   52.4360   17.5177   83.3024 C   0  0  0  0  0  0  0  0  0  0  0  0
   51.9330   11.2153   80.1353 C   0  0  0  0  0  0  0  0  0  0  0  0
   51.1997   13.2132   82.8704 O   0  0  0  0  0  0  0  0  0  0  0  0
   54.0077   15.9596   82.3539 C   0  0  0  0  0  0  0  0  0  0  0  0
   53.6226   12.3318   81.5173 C   0  0  0  0  0  0  0  0  0  0  0  0
   53.3125   13.6397   81.9537 C   0  0  0  0  0  0  0  0  0  0  0  0
   51.8431   15.3383   83.0581 N   0  0  0  0  0  0  0  0  0  0  0  0
   53.3351   18.5376   83.1525 C   0  0  0  0  0  0  0  0  0  0  0  0
   52.1823   10.5525   82.4307 C   0  0  0  0  0  0  0  0  0  0  0  0
   55.5691   14.3108   81.3834 C   0  0  0  0  0  0  0  0  0  0  0  0
   54.9459   16.9705   82.2525 C   0  0  0  0  0  0  0  0  0  0  0  0
   52.5609   11.3335   81.3695 C   0  0  0  0  0  0  0  0  0  0  0  0
   54.3146   14.5944   81.8906 C   0  0  0  0  0  0  0  0  0  0  0  0
   55.8707   13.0148   80.9376 C   0  0  0  0  0  0  0  0  0  0  0  0
   52.0687   14.0251   82.6849 C   0  0  0  0  0  0  0  0  0  0  0  0
   51.1796    9.6179   82.2634 C   0  0  0  0  0  0  0  0  0  0  0  0
   54.6005   18.2668   82.6424 C   0  0  0  0  0  0  0  0  0  0  0  0
   50.9356   10.2666   79.9632 C   0  0  0  0  0  0  0  0  0  0  0  0
   54.8772   12.0372   80.9827 C   0  0  0  0  0  0  0  0  0  0  0  0
   50.5630    9.4770   81.0349 C   0  0  0  0  0  0  0  0  0  0  0  0
  1  2  2  0
  1  5  1  0
  1  8  1  0
  2  9  1  0
  3 13  1  0
  3 19  2  0
  4 16  2  0
  5 12  2  0
  5 14  1  0
  6  7  2  0
  6 13  1  0
  6 20  1  0
  7 14  1  0
  7 16  1  0
  8 16  1  0
  9 18  2  0
 10 13  2  0
 10 17  1  0
 11 14  2  0
 11 15  1  0
 12 18  1  0
 15 20  2  0
 17 21  2  0
 19 21  1  0
M  END
$$$$
