
     RDKit          3D

 24 27  0  0  0  0  0  0  0  0999 V2000
   51.1491   10.3455   80.0572 N   0  0  0  0  0  0  0  0  0  0  0  0
   56.2406   14.7503   82.1990 Cl  0  0  0  0  0  0  0  0  0  0  0  0
   51.7324   12.3012   81.1374 N   0  0  0  0  0  0  0  0  0  0  0  0
   53.4758   15.8435   82.4115 C   0  0  0  0  0  0  0  0  0  0  0  0
   53.8077   11.4363   80.4187 C   0  0  0  0  0  0  0  0  0  0  0  0
   55.1503   11.4635   80.3276 C   0  0  0  0  0  0  0  0  0  0  0  0
   53.8897   13.4494   81.6514 C   0  0  0  0  0  0  0  0  0  0  0  0
   52.5838   16.4683   83.3833 C   0  0  0  0  0  0  0  0  0  0  0  0
   49.9690   10.5147   82.1411 S   0  0  0  0  0  0  0  0  0  0  0  0
   53.0054   18.8712   83.5463 C   0  0  0  0  0  0  0  0  0  0  0  0
   50.9634   11.0983   81.0820 C   0  0  0  0  0  0  0  0  0  0  0  0
   53.2320   14.4922   82.3755 N   0  0  0  0  0  0  0  0  0  0  0  0
   55.8691   12.4721   80.8808 C   0  0  0  0  0  0  0  0  0  0  0  0
   53.1485   12.4204   81.0876 C   0  0  0  0  0  0  0  0  0  0  0  0
   52.4013   17.7617   83.8411 C   0  0  0  0  0  0  0  0  0  0  0  0
   50.4633    9.2099   80.1178 C   0  0  0  0  0  0  0  0  0  0  0  0
   54.3818   16.7055   81.7503 C   0  0  0  0  0  0  0  0  0  0  0  0
   52.2130   14.2766   83.3243 C   0  0  0  0  0  0  0  0  0  0  0  0
   55.2547   13.4826   81.5653 C   0  0  0  0  0  0  0  0  0  0  0  0
   51.8570   15.4553   83.8994 N   0  0  0  0  0  0  0  0  0  0  0  0
   54.6384   18.0405   81.8330 C   0  0  0  0  0  0  0  0  0  0  0  0
   54.0323   18.9996   82.5852 C   0  0  0  0  0  0  0  0  0  0  0  0
   49.7385    9.1084   81.1746 C   0  0  0  0  0  0  0  0  0  0  0  0
   51.6965   13.1070   83.6194 N   0  0  0  0  0  0  0  0  0  0  0  0
  1 11  4  0
  1 16  4  0
  2 19  1  0
  3 11  1  0
  3 14  1  0
  4  8  4  0
  4 12  4  0
  4 17  4  0
  5  6  4  0
  5 14  4  0
  6 13  4  0
  7 12  1  0
  7 14  4  0
  7 19  4  0
  8 15  4  0
  8 20  4  0
  9 11  4  0
  9 23  4  0
 10 15  4  0
 10 22  4  0
 12 18  4  0
 13 19  4  0
 16 23  4  0
 17 21  4  0
 18 20  4  0
 18 24  1  0
 21 22  4  0
M  END
$$$$
