
     RDKit          3D

 20 22  0  0  0  0  0  0  0  0999 V2000
   52.8102   18.1245   83.6696 C   0  0  0  0  0  0  0  0  0  0  0  0
   52.5773   14.7302   82.4863 C   0  0  0  0  0  0  0  0  0  0  0  0
   53.0930   15.9711   82.8174 C   0  0  0  0  0  0  0  0  0  0  0  0
   52.2215   16.8521   83.4509 C   0  0  0  0  0  0  0  0  0  0  0  0
   51.1066   10.4328   80.7366 C   0  0  0  0  0  0  0  0  0  0  0  0
   51.9969   10.9582   79.8431 C   0  0  0  0  0  0  0  0  0  0  0  0
   54.1456   18.4357   83.3182 C   0  0  0  0  0  0  0  0  0  0  0  0
   50.3773    9.3665   80.3331 O   0  0  0  0  0  0  0  0  0  0  0  0
   50.9993   10.9699   82.0573 C   0  0  0  0  0  0  0  0  0  0  0  0
   54.4583   16.2483   82.4829 C   0  0  0  0  0  0  0  0  0  0  0  0
   50.9581   14.4863   82.8825 Cl  0  0  0  0  0  0  0  0  0  0  0  0
   52.7854   12.0104   80.2399 C   0  0  0  0  0  0  0  0  0  0  0  0
   55.3079   15.2829   81.8893 C   0  0  0  0  0  0  0  0  0  0  0  0
   52.7152   12.5014   81.5371 C   0  0  0  0  0  0  0  0  0  0  0  0
   54.7406   14.0410   81.6106 C   0  0  0  0  0  0  0  0  0  0  0  0
   51.7768   11.9993   82.4153 C   0  0  0  0  0  0  0  0  0  0  0  0
   54.9817   17.5212   82.7353 C   0  0  0  0  0  0  0  0  0  0  0  0
   56.1180   12.1797   80.5876 N   0  0  0  0  0  0  0  0  0  0  0  0
   53.4023   13.7494   81.9065 C   0  0  0  0  0  0  0  0  0  0  0  0
   55.5019   13.0796   81.0561 C   0  0  0  0  0  0  0  0  0  0  0  0
  1  4  1  0
  1  7  2  0
  2  3  1  0
  2 11  1  0
  2 19  2  0
  3  4  2  0
  3 10  1  0
  5  6  1  0
  5  8  1  0
  5  9  2  0
  6 12  2  0
  7 17  1  0
  9 16  1  0
 10 13  1  0
 10 17  2  0
 12 14  1  0
 13 15  2  0
 14 16  2  0
 14 19  1  0
 15 19  1  0
 15 20  1  0
 18 20  3  0
M  END
$$$$
