
     RDKit          3D

 17 16  0  0  0  0  0  0  0  0999 V2000
  -19.9831   15.1837  -32.4428 C   0  0  0  0  0  0  0  0  0  0  0  0
  -20.2968   14.0246  -32.3855 O   0  0  0  0  0  0  0  0  0  0  0  0
  -20.0015   15.8369  -27.6665 C   0  0  0  0  0  0  0  0  0  0  0  0
  -18.1641   15.0655  -27.7813 C   0  0  0  0  0  0  0  0  0  0  0  0
  -20.6263   16.0690  -26.4897 C   0  0  0  0  0  0  0  0  0  0  0  0
  -17.3758   17.1738  -25.0196 N   0  0  0  0  0  0  0  0  0  0  0  0
  -22.5727   16.8991  -27.7498 C   0  0  0  0  0  0  0  0  0  0  0  0
  -21.9363   16.5936  -26.5931 C   0  0  0  0  0  0  0  0  0  0  0  0
  -18.8837   15.5982  -32.9852 O   0  0  0  0  0  0  0  0  0  0  0  0
  -23.9257   17.3800  -27.5068 O   0  0  0  0  0  0  0  0  0  0  0  0
  -20.6262   16.0668  -28.9860 C   0  0  0  0  0  0  0  0  0  0  0  0
  -20.6016   16.0346  -31.4627 C   0  0  0  0  0  0  0  0  0  0  0  0
  -20.0002   15.7725  -30.1760 N   0  0  0  0  0  0  0  0  0  0  0  0
  -18.0844   15.9289  -27.5936 C   0  0  0  0  0  0  0  0  0  0  0  0
  -21.9277   16.6100  -28.9769 C   0  0  0  0  0  0  0  0  0  0  0  0
  -16.9201   16.4878  -26.2278 C   0  0  0  0  0  0  0  0  0  0  0  0
  -16.6778   14.6885  -27.9856 C   0  0  0  0  0  0  0  0  0  0  0  0
  1  2  1  0
  1  9  2  0
  1 12  1  0
  3  5  1  0
  3 11  2  0
  4 14  1  0
  4 17  1  0
  5  8  2  0
  6 16  1  0
  7  8  1  0
  7 10  1  0
  7 15  2  0
 11 13  1  0
 11 15  1  0
 12 13  1  0
 14 16  1  0
M  END
$$$$
