
     RDKit          3D

 20 22  0  0  0  0  0  0  0  0999 V2000
  -20.0286   14.9337  -33.0065 C   0  0  0  0  0  0  0  0  0  0  0  0
  -22.2040   18.2095  -26.3005 C   0  0  0  0  0  0  0  0  0  0  0  0
  -17.5445   14.7827  -29.1038 C   0  0  0  0  0  0  0  0  0  0  0  0
  -17.0317   15.3814  -27.9258 N   0  0  0  0  0  0  0  0  0  0  0  0
  -23.4011   18.5106  -26.7326 O   0  0  0  0  0  0  0  0  0  0  0  0
  -19.2347   16.3804  -27.2704 C   0  0  0  0  0  0  0  0  0  0  0  0
  -15.6742   14.9260  -27.5442 C   0  0  0  0  0  0  0  0  0  0  0  0
  -20.0634   17.0456  -26.3492 C   0  0  0  0  0  0  0  0  0  0  0  0
  -19.8432   14.5634  -31.6915 N   0  0  0  0  0  0  0  0  0  0  0  0
  -19.7581   17.3587  -24.9527 C   0  0  0  0  0  0  0  0  0  0  0  0
  -18.7543   15.5115  -29.5687 C   0  0  0  0  0  0  0  0  0  0  0  0
  -19.0803   15.4862  -31.0879 C   0  0  0  0  0  0  0  0  0  0  0  0
  -21.3115   17.4898  -26.8030 C   0  0  0  0  0  0  0  0  0  0  0  0
  -17.8083   16.0503  -26.9781 C   0  0  0  0  0  0  0  0  0  0  0  0
  -17.2844   16.5182  -25.9448 O   0  0  0  0  0  0  0  0  0  0  0  0
  -18.5940   16.4533  -32.0843 C   0  0  0  0  0  0  0  0  0  0  0  0
  -21.7254   17.1944  -28.1011 C   0  0  0  0  0  0  0  0  0  0  0  0
  -20.8132   16.7400  -28.9834 C   0  0  0  0  0  0  0  0  0  0  0  0
  -19.5834   16.2145  -28.6186 C   0  0  0  0  0  0  0  0  0  0  0  0
  -19.3279   16.1728  -33.2073 C   0  0  0  0  0  0  0  0  0  0  0  0
  1  9  1  0
  1 20  2  0
  2  5  2  0
  2 13  1  0
  3  4  1  0
  3 11  1  0
  4  7  1  0
  4 14  1  0
  6  8  1  0
  6 14  1  0
  6 19  2  0
  8 10  1  0
  8 13  2  0
  9 12  1  0
 11 12  1  0
 11 19  1  0
 12 16  2  0
 13 17  1  0
 14 15  2  0
 16 20  1  0
 17 18  2  0
 18 19  1  0
M  END
$$$$
