
     RDKit          3D

 17 18  0  0  0  0  0  0  0  0999 V2000
  -22.7527   16.7144  -28.3650 O   0  0  0  0  0  0  0  0  0  0  0  0
  -17.5086   16.4064  -26.4428 C   0  0  0  0  0  0  0  0  0  0  0  0
  -18.8125   16.5183  -26.9029 C   0  0  0  0  0  0  0  0  0  0  0  0
  -16.9007   15.2093  -28.4394 C   0  0  0  0  0  0  0  0  0  0  0  0
  -20.4512   16.1848  -28.5650 C   0  0  0  0  0  0  0  0  0  0  0  0
  -20.9167   15.5392  -29.7255 O   0  0  0  0  0  0  0  0  0  0  0  0
  -20.4521   16.1362  -30.9030 C   0  0  0  0  0  0  0  0  0  0  0  0
  -16.5694   15.7317  -27.2018 C   0  0  0  0  0  0  0  0  0  0  0  0
  -18.1685   15.3465  -28.9002 C   0  0  0  0  0  0  0  0  0  0  0  0
  -22.0921   17.9179  -25.9163 O   0  0  0  0  0  0  0  0  0  0  0  0
  -21.4462   16.7118  -27.8571 C   0  0  0  0  0  0  0  0  0  0  0  0
  -19.7207   15.5622  -33.0418 O   0  0  0  0  0  0  0  0  0  0  0  0
  -20.3423   15.2271  -32.0608 C   0  0  0  0  0  0  0  0  0  0  0  0
  -19.1245   16.0494  -28.1688 C   0  0  0  0  0  0  0  0  0  0  0  0
  -21.1126   17.2927  -26.6284 C   0  0  0  0  0  0  0  0  0  0  0  0
  -20.9038   14.1274  -32.0228 O   0  0  0  0  0  0  0  0  0  0  0  0
  -19.8409   17.1495  -26.1056 C   0  0  0  0  0  0  0  0  0  0  0  0
  1 11  1  0
  2  3  2  0
  2  8  1  0
  3 14  1  0
  3 17  1  0
  4  8  2  0
  4  9  1  0
  5  6  1  0
  5 11  2  0
  5 14  1  0
  6  7  1  0
  7 13  1  0
  9 14  2  0
 10 15  1  0
 11 15  1  0
 12 13  2  0
 13 16  1  0
 15 17  2  0
M  END
$$$$
