
     RDKit          3D

 17 16  0  0  0  0  0  0  0  0999 V2000
    7.6843    2.8951   25.0439 C   0  0  0  0  0  0  0  0  0  0  0  0
    5.5464    5.5562   23.9252 C   0  0  0  0  0  0  0  0  0  0  0  0
    9.0651    2.2811   24.9695 C   0  0  0  0  0  0  0  0  0  0  0  0
    4.1121    5.1583   24.1766 C   0  0  0  0  0  0  0  0  0  0  0  0
    6.3908    4.3754   23.4919 C   0  0  0  0  0  0  0  0  0  0  0  0
   13.2749    0.5564   23.0827 C   0  0  0  0  0  0  0  0  0  0  0  0
   11.2219    3.5264   24.3305 C   0  0  0  0  0  0  0  0  0  0  0  0
   14.2802   -0.0644   23.9346 N   0  0  0  0  0  0  0  0  0  0  0  0
    0.0507    5.6502   23.1582 N   0  0  0  0  0  0  0  0  0  0  0  0
   13.1246    2.8343   21.9897 C   0  0  0  0  0  0  0  0  0  0  0  0
    1.8754    5.8957   24.7139 C   0  0  0  0  0  0  0  0  0  0  0  0
    0.8163    6.6101   23.9439 C   0  0  0  0  0  0  0  0  0  0  0  0
    7.6267    4.2410   24.3590 C   0  0  0  0  0  0  0  0  0  0  0  0
   10.1321    3.2852   25.3560 C   0  0  0  0  0  0  0  0  0  0  0  0
   13.0687    2.0570   23.2740 C   0  0  1  0  0  0  0  0  0  0  0  0
   11.7307    2.2267   23.8818 C   0  0  0  0  0  0  0  0  0  0  0  0
    3.2038    6.3600   24.1311 C   0  0  0  0  0  0  0  0  0  0  0  0
  1  3  1  0
  1 13  1  0
  2  4  1  0
  2  5  1  0
  3 14  1  0
  4 17  1  0
  5 13  1  0
  6  8  1  0
  6 15  1  0
  7 14  1  0
  7 16  1  0
  9 12  1  0
 15 10  1  6
 11 12  1  0
 11 17  1  0
 15 16  1  0
M  END
