
     RDKit          3D

  9  8  0  0  0  0  0  0  0  0999 V2000
  -13.8785   -7.8482   23.1912 C   0  0  0  0  0  0  0  0  0  0  0  0
  -12.8318   -8.1567   24.2937 C   0  0  0  0  0  0  0  0  0  0  0  0
  -13.8164   -8.8233   21.9591 C   0  0  0  0  0  0  0  0  0  0  0  0
  -13.3263   -7.2737   25.6125 C   0  0  0  0  0  0  0  0  0  0  0  0
  -12.3247   -9.9404   24.3076 C   0  0  0  0  0  0  0  0  0  0  0  0
  -11.5629   -7.6072   24.0465 O   0  0  0  0  0  0  0  0  0  0  0  0
  -12.7056   -8.2763   21.1893 O   0  0  0  0  0  0  0  0  0  0  0  0
  -12.9883  -10.6609   25.0576 O   0  0  0  0  0  0  0  0  0  0  0  0
  -11.3115  -10.6423   23.6560 O   0  0  0  0  0  0  0  0  0  0  0  0
  1  2  1  0
  1  3  1  0
  2  4  1  0
  2  5  1  0
  2  6  1  0
  3  7  1  0
  5  8  2  0
  5  9  1  0
M  END
$$$$
