
     RDKit          3D

 29 31  0  0  0  0  0  0  0  0999 V2000
   -0.2317   -0.0707   -0.5970 N   0  0  0  0  0  0  0  0  0  0  0  0
    0.2937    0.8383    0.4284 C   0  0  2  0  0  0  0  0  0  0  0  0
    0.0100    2.2943    0.0488 C   0  0  0  0  0  0  0  0  0  0  0  0
    5.0144    1.0002   -1.1875 C   0  0  0  0  0  0  0  0  0  0  0  0
   -2.5267    0.1533    0.1818 N   0  0  0  0  0  0  0  0  0  0  0  0
   -6.6506   -1.8951   -1.4420 C   0  0  0  0  0  0  0  0  0  0  0  0
    6.1643   -2.2519    1.1310 F   0  0  0  0  0  0  0  0  0  0  0  0
    4.4725   -0.7962    0.3400 C   0  0  0  0  0  0  0  0  0  0  0  0
    9.0550   -0.2152   -1.0309 O   0  0  0  0  0  0  0  0  0  0  0  0
    8.2116   -0.8577   -0.3482 C   0  0  0  0  0  0  0  0  0  0  0  0
   -4.7614    1.0760    2.0401 C   0  0  0  0  0  0  0  0  0  0  0  0
   -5.9748   -0.3131    0.4009 N   0  0  0  0  0  0  0  0  0  0  0  0
    6.7796   -0.4702   -0.3714 C   0  0  0  0  0  0  0  0  0  0  0  0
    1.7734    0.6216    0.6245 C   0  0  0  0  0  0  0  0  0  0  0  0
   -5.6691   -1.0553   -0.6942 C   0  0  0  0  0  0  0  0  0  0  0  0
   -1.6303   -0.3766   -0.7097 C   0  0  0  0  0  0  0  0  0  0  0  0
   -4.3092   -0.9724   -0.9235 C   0  0  0  0  0  0  0  0  0  0  0  0
   -3.8414   -0.1499    0.0519 C   0  0  0  0  0  0  0  0  0  0  0  0
    6.3591    0.6205   -1.1544 C   0  0  0  0  0  0  0  0  0  0  0  0
    2.6788    0.6956   -0.4906 N   0  0  0  0  0  0  0  0  0  0  0  0
    5.8169   -1.1801    0.3747 C   0  0  0  0  0  0  0  0  0  0  0  0
   -2.0845   -1.2392   -1.7433 C   0  0  0  0  0  0  0  0  0  0  0  0
   -4.4102    0.2142    3.2463 C   0  0  0  0  0  0  0  0  0  0  0  0
   -4.8531    0.2512    0.8393 N   0  0  0  0  0  0  0  0  0  0  0  0
    2.2148    0.4303    1.7902 O   0  0  0  0  0  0  0  0  0  0  0  0
   -3.4528   -1.5492   -1.8534 C   0  0  0  0  0  0  0  0  0  0  0  0
    4.6423    2.0587   -1.9508 F   0  0  0  0  0  0  0  0  0  0  0  0
    4.0620    0.3068   -0.4264 C   0  0  0  0  0  0  0  0  0  0  0  0
    8.6454   -1.9312    0.4250 O   0  0  0  0  0  0  0  0  0  0  0  0
  1  2  1  0
  1 16  1  0
  2  3  1  6
  2 14  1  0
  4 19  1  0
  4 27  1  0
  4 28  2  0
  5 16  2  0
  5 18  1  0
  6 15  1  0
  7 21  1  0
  8 21  2  0
  8 28  1  0
  9 10  2  0
 10 13  1  0
 10 29  1  0
 11 23  1  0
 11 24  1  0
 12 15  2  0
 12 24  1  0
 13 19  2  0
 13 21  1  0
 14 20  1  0
 14 25  2  0
 15 17  1  0
 16 22  1  0
 17 18  2  0
 17 26  1  0
 18 24  1  0
 20 28  1  0
 22 26  2  0
M  END
