
     RDKit          3D

 28 30  0  0  0  0  0  0  0  0999 V2000
    1.2396   -2.0893    2.5491 O   0  0  0  0  0  0  0  0  0  0  0  0
   -7.8767    0.5557   -0.3797 O   0  0  0  0  0  0  0  0  0  0  0  0
   -6.8367    1.3980   -2.7885 O   0  0  0  0  0  0  0  0  0  0  0  0
   -0.7978   -1.1750    1.7718 N   0  0  0  0  0  0  0  0  0  0  0  0
    0.4996   -1.7158    1.6002 C   0  0  0  0  0  0  0  0  0  0  0  0
    3.3286   -1.5548   -0.3951 C   0  0  0  0  0  0  0  0  0  0  0  0
    4.2400    0.6652   -0.8318 C   0  0  0  0  0  0  0  0  0  0  0  0
    5.6772   -1.3147   -0.9787 O   0  0  0  0  0  0  0  0  0  0  0  0
    2.7672    2.6270   -0.6551 O   0  0  0  0  0  0  0  0  0  0  0  0
    4.4226   -0.7267   -0.7380 C   0  0  0  0  0  0  0  0  0  0  0  0
    2.0444   -0.9783   -0.1998 C   0  0  0  0  0  0  0  0  0  0  0  0
   -6.6128    1.4385   -1.1005 S   0  0  0  0  0  0  0  0  0  0  0  0
    3.5316   -3.0475   -0.2666 C   0  0  0  0  0  0  0  0  0  0  0  0
    2.9851    1.2420   -0.5897 C   0  0  0  0  0  0  0  0  0  0  0  0
   -0.3878   -1.3092   -0.4720 N   0  0  0  0  0  0  0  0  0  0  0  0
    0.8308   -1.8250    0.1552 C   0  0  0  0  0  0  0  0  0  0  0  0
    1.9051    0.4203   -0.2730 C   0  0  0  0  0  0  0  0  0  0  0  0
   -2.5647   -0.3838    0.0749 C   0  0  0  0  0  0  0  0  0  0  0  0
   -6.7343    3.0608   -0.5949 O   0  0  0  0  0  0  0  0  0  0  0  0
   -5.0399    0.7379   -0.6508 C   0  0  0  0  0  0  0  0  0  0  0  0
    6.8584   -0.6009   -1.3306 C   0  0  0  0  0  0  0  0  0  0  0  0
   -4.4563   -0.2519   -1.4493 C   0  0  0  0  0  0  0  0  0  0  0  0
   -3.2225   -0.8047   -1.0935 C   0  0  0  0  0  0  0  0  0  0  0  0
    3.7706    3.5886   -0.9652 C   0  0  0  0  0  0  0  0  0  0  0  0
   -3.1505    0.6199    0.8647 C   0  0  0  0  0  0  0  0  0  0  0  0
   -4.3839    1.1718    0.5064 C   0  0  0  0  0  0  0  0  0  0  0  0
   -1.2528   -0.9643    0.4341 C   0  0  0  0  0  0  0  0  0  0  0  0
   -1.5973   -1.2418    2.9922 C   0  0  0  0  0  0  0  0  0  0  0  0
  1  5  2  0
  2 12  1  0
  3 12  1  0
  4  5  1  0
  4 27  1  0
  4 28  1  0
  5 16  1  0
  6 10  2  0
  6 11  1  0
  6 13  1  0
  7 10  1  0
  7 14  2  0
  8 10  1  0
  8 21  1  0
  9 14  1  0
  9 24  1  0
 11 16  1  0
 11 17  2  0
 12 19  1  0
 12 20  1  0
 14 17  1  0
 15 16  1  0
 15 27  2  0
 18 23  1  0
 18 25  2  0
 18 27  1  0
 20 22  1  0
 20 26  2  0
 22 23  2  0
 25 26  1  0
M  END
