
     RDKit          3D

 27 29  0  0  0  0  0  0  0  0999 V2000
   -1.6238    1.0347    2.1201 C   0  0  0  0  0  0  0  0  0  0  0  0
   -2.6022   -1.2161    1.2220 C   0  0  0  0  0  0  0  0  0  0  0  0
    4.6608    0.9662   -0.9058 C   0  0  0  0  0  0  0  0  0  0  0  0
    5.9267    1.0312   -0.3172 C   0  0  0  0  0  0  0  0  0  0  0  0
    6.1777    0.3649    0.8813 C   0  0  0  0  0  0  0  0  0  0  0  0
   -2.4784    0.2975    1.1140 C   0  0  0  0  0  0  0  0  0  0  0  0
   -4.6595   -1.0192   -0.1609 C   0  0  0  0  0  0  0  0  0  0  0  0
    3.8993   -0.4519    0.9033 C   0  0  0  0  0  0  0  0  0  0  0  0
    5.1679   -0.3824    1.4858 C   0  0  0  0  0  0  0  0  0  0  0  0
   -1.5279   -1.8922    0.3945 C   0  0  0  0  0  0  0  0  0  0  0  0
   -4.0391    0.1918   -0.8252 C   0  0  0  0  0  0  0  0  0  0  0  0
   -3.0068    2.4538   -0.0509 C   0  0  0  0  0  0  0  0  0  0  0  0
    3.6058    0.2565   -0.2858 C   0  0  0  0  0  0  0  0  0  0  0  0
    1.9268    1.3903   -1.7969 C   0  0  0  0  0  0  0  0  0  0  0  0
   -6.0031   -1.5268   -0.6051 C   0  0  0  0  0  0  0  0  0  0  0  0
    1.4870   -2.1266   -0.9826 C   0  0  0  0  0  0  0  0  0  0  0  0
   -0.1583   -2.1435    0.9661 C   0  0  0  0  0  0  0  0  0  0  0  0
   -3.1492    0.9618    0.1334 C   0  0  0  0  0  0  0  0  0  0  0  0
    2.2215   -1.1665   -1.8335 C   0  0  0  0  0  0  0  0  0  0  0  0
    1.6834    2.7129   -1.1252 C   0  0  0  0  0  0  0  0  0  0  0  0
    0.8647   -1.5145    0.1312 N   0  0  0  0  0  0  0  0  0  0  0  0
    1.0731   -0.0789    0.0530 C   0  0  0  0  0  0  0  0  0  0  0  0
   -3.9796   -1.6751    0.7977 C   0  0  0  0  0  0  0  0  0  0  0  0
    2.2304    0.1341   -0.9741 C   0  0  1  0  0  0  0  0  0  0  0  0
    1.9269    1.3520   -3.0189 O   0  0  0  0  0  0  0  0  0  0  0  0
    1.3856   -3.3556   -1.2405 O   0  0  0  0  0  0  0  0  0  0  0  0
   -1.7522   -2.2116   -0.7649 O   0  0  0  0  0  0  0  0  0  0  0  0
  1  6  1  0
  2  6  1  0
  2 10  1  0
  2 23  1  0
  3  4  1  0
  3 13  2  0
  4  5  2  0
  5  9  1  0
  6 18  2  0
  7 11  1  0
  7 15  1  0
  7 23  2  0
  8  9  2  0
  8 13  1  0
 10 17  1  0
 10 27  2  0
 11 18  1  0
 12 18  1  0
 13 24  1  0
 14 20  1  0
 24 14  1  6
 14 25  2  0
 16 19  1  0
 16 21  1  0
 16 26  2  0
 17 21  1  0
 19 24  1  0
 21 22  1  0
 22 24  1  0
M  END
