
     RDKit          3D

 30 32  0  0  0  0  0  0  0  0999 V2000
    2.3830   -0.0502    0.9968 C   0  0  0  0  0  0  0  0  0  0  0  0
   -1.3751    0.4790    1.6447 C   0  0  2  0  0  0  0  0  0  0  0  0
   -1.9849    2.7742    1.3127 O   0  0  0  0  0  0  0  0  0  0  0  0
   -3.8492   -0.0627   -0.0536 C   0  0  0  0  0  0  0  0  0  0  0  0
    1.4376    0.8400   -2.4790 C   0  0  0  0  0  0  0  0  0  0  0  0
    1.3408    0.5796   -1.1047 C   0  0  0  0  0  0  0  0  0  0  0  0
    0.0128   -3.8550    2.4947 N   0  0  0  0  0  0  0  0  0  0  0  0
    3.7376    0.1093   -1.0392 C   0  0  0  0  0  0  0  0  0  0  0  0
    5.3993   -1.5814   -0.3760 C   0  0  0  0  0  0  0  0  0  0  0  0
   -0.0158    0.4129    0.9311 C   0  0  0  0  0  0  0  0  0  0  0  0
   -1.4155   -2.0255    2.1437 N   0  0  0  0  0  0  0  0  0  0  0  0
   -1.1835    0.8668    2.9914 O   0  0  0  0  0  0  0  0  0  0  0  0
    0.1019    0.6727   -0.4533 C   0  0  0  0  0  0  0  0  0  0  0  0
   -2.8230   -1.1561    0.2345 C   0  0  0  0  0  0  0  0  0  0  0  0
   -6.1012    2.4812   -0.0611 O   0  0  0  0  0  0  0  0  0  0  0  0
    5.0835    0.3323   -3.1071 C   0  0  0  0  0  0  0  0  0  0  0  0
    3.8192    0.3886   -2.4168 C   0  0  0  0  0  0  0  0  0  0  0  0
   -3.8236    2.3589   -0.7734 C   0  0  0  0  0  0  0  0  0  0  0  0
   -2.1545   -0.8770    1.5905 C   0  0  2  0  0  0  0  0  0  0  0  0
   -3.2374    1.2720    0.0205 N   0  0  0  0  0  0  0  0  0  0  0  0
    0.0293   -2.6957    0.3749 O   0  0  0  0  0  0  0  0  0  0  0  0
   -2.2296    1.5716    1.0161 C   0  0  0  0  0  0  0  0  0  0  0  0
    1.1471    0.0447    1.6387 C   0  0  0  0  0  0  0  0  0  0  0  0
    2.6692    0.7486   -3.1280 C   0  0  0  0  0  0  0  0  0  0  0  0
   -0.4918   -2.8131    1.6630 C   0  0  0  0  0  0  0  0  0  0  0  0
    2.4966    0.2145   -0.3762 C   0  0  0  0  0  0  0  0  0  0  0  0
    4.8841   -0.2568   -0.3261 O   0  0  0  0  0  0  0  0  0  0  0  0
    6.1409    0.2856   -3.6844 C   0  0  0  0  0  0  0  0  0  0  0  0
   -4.9515    2.9956   -0.0258 C   0  0  0  0  0  0  0  0  0  0  0  0
   -4.7216    4.1333    0.7410 O   0  0  0  0  0  0  0  0  0  0  0  0
  1 23  2  0
  1 26  1  0
  2 10  1  0
  2 12  1  1
  2 19  1  0
  2 22  1  0
  3 22  2  0
  4 14  1  0
  4 20  1  0
  5  6  2  0
  5 24  1  0
  6 13  1  0
  6 26  1  0
  7 25  1  0
  8 17  1  0
  8 26  2  0
  8 27  1  0
  9 27  1  0
 10 13  2  0
 10 23  1  0
 11 19  1  0
 11 25  2  3
 19 14  1  6
 15 29  2  0
 16 17  1  0
 16 28  3  0
 17 24  2  0
 18 20  1  0
 18 29  1  0
 20 22  1  0
 21 25  1  0
 29 30  1  0
M  END
