
     RDKit          3D

 16 19  0  0  0  0  0  0  0  0999 V2000
  -37.5398   27.6835  -19.1619 C   0  0  0  0  0  0  0  0  0  0  0  0
  -36.8068   28.8649  -19.2550 C   0  0  0  0  0  0  0  0  0  0  0  0
  -34.6417   30.1165  -19.5850 C   0  0  0  0  0  0  0  0  0  0  0  0
  -35.4124   28.8372  -19.3924 C   0  0  0  0  0  0  0  0  0  0  0  0
  -34.7606   27.5976  -19.4283 C   0  0  0  0  0  0  0  0  0  0  0  0
  -36.3332   33.5985  -19.6327 C   0  0  1  0  0  0  0  0  0  0  0  0
  -36.4656   32.6465  -20.8329 C   0  0  0  0  0  0  0  0  0  0  0  0
  -37.6885   35.5116  -19.8865 O   0  0  0  0  0  0  0  0  0  0  0  0
  -35.4919   26.4130  -19.3154 C   0  0  0  0  0  0  0  0  0  0  0  0
  -37.5191   34.3315  -19.1159 C   0  0  0  0  0  0  0  0  0  0  0  0
  -37.5142   30.0425  -19.2522 O   0  0  0  0  0  0  0  0  0  0  0  0
  -35.2997   31.2272  -18.8241 C   0  0  1  0  0  0  0  0  0  0  0  0
  -36.8209   31.1314  -18.6044 C   0  0  1  0  0  0  0  0  0  0  0  0
  -36.8799   26.4556  -19.1841 C   0  0  0  0  0  0  0  0  0  0  0  0
  -34.5487   31.7450  -17.7092 O   0  0  0  0  0  0  0  0  0  0  0  0
  -36.2332   32.1461  -19.4786 C   0  0  1  0  0  0  0  0  0  0  0  0
  1  2  2  0
  1 14  1  0
  2  4  1  0
  2 11  1  0
  3  4  1  0
  3 12  1  0
  4  5  2  0
  5  9  1  0
  6  7  1  0
  6 10  1  1
  6 16  1  0
 16  7  1  6
  8 10  1  0
  9 14  2  0
 13 11  1  6
 12 13  1  0
 12 15  1  1
 12 16  1  0
 13 16  1  0
M  END
$$$$
