
     RDKit          3D

 16 17  0  0  0  0  0  0  0  0999 V2000
   -6.2390   20.0953   23.3688 C   0  0  0  0  0  0  0  0  0  0  0  0
   -3.3609   22.4222   22.2437 Cl  0  0  0  0  0  0  0  0  0  0  0  0
   -3.3678   20.0224   23.5090 C   0  0  0  0  0  0  0  0  0  0  0  0
   -8.7077   16.2104   26.5114 N   0  0  0  0  0  0  0  0  0  0  0  0
   -4.1009   18.9782   24.0332 C   0  0  0  0  0  0  0  0  0  0  0  0
   -6.3384   16.5648   24.1116 N   0  0  0  0  0  0  0  0  0  0  0  0
   -6.3153   17.8081   24.5085 C   0  0  0  0  0  0  0  0  0  0  0  0
   -5.4498   21.0156   22.8476 C   0  0  0  0  0  0  0  0  0  0  0  0
   -7.1571   15.8177   24.7320 N   0  0  0  0  0  0  0  0  0  0  0  0
   -7.6843   16.5737   25.6600 C   0  0  0  0  0  0  0  0  0  0  0  0
   -7.6047   18.9970   26.1994 N   0  0  0  0  0  0  0  0  0  0  0  0
   -4.1031   21.0509   22.9212 C   0  0  0  0  0  0  0  0  0  0  0  0
   -3.4506   17.9812   24.5992 F   0  0  0  0  0  0  0  0  0  0  0  0
   -5.4980   19.0021   23.9623 C   0  0  0  0  0  0  0  0  0  0  0  0
   -7.2073   17.7861   25.5163 C   0  0  0  0  0  0  0  0  0  0  0  0
   -6.1753   21.9208   22.2823 F   0  0  0  0  0  0  0  0  0  0  0  0
  1  8  1  0
  1 14  2  0
  2 12  1  0
  3  5  2  0
  3 12  1  0
  4 10  1  0
  5 13  1  0
  5 14  1  0
  6  7  1  0
  6  9  1  0
  7 14  1  0
  7 15  2  0
  8 12  2  0
  8 16  1  0
  9 10  2  0
 10 15  1  0
 11 15  1  0
M  END
$$$$
