
     RDKit          3D

 20 21  0  0  0  0  0  0  0  0999 V2000
   -4.2415   18.0521   23.9674 C   0  0  0  0  0  0  0  0  0  0  0  0
   -6.8236   16.5360   25.5228 C   0  0  0  0  0  0  0  0  0  0  0  0
   -7.2846   19.8383   24.4329 C   0  0  0  0  0  0  0  0  0  0  0  0
   -7.1335   17.9426   25.4164 C   0  0  0  0  0  0  0  0  0  0  0  0
   -8.4584   18.3145   25.5865 C   0  0  0  0  0  0  0  0  0  0  0  0
   -6.2787   18.9816   26.6392 C   0  0  0  0  0  0  0  0  0  0  0  0
   -4.4143   17.2946   25.0925 N   0  0  0  0  0  0  0  0  0  0  0  0
   -4.1121   21.6180   21.6570 C   0  0  0  0  0  0  0  0  0  0  0  0
   -7.6671   15.7302   25.7631 O   0  0  0  0  0  0  0  0  0  0  0  0
   -2.7950   22.2011   21.2906 C   0  0  0  0  0  0  0  0  0  0  0  0
   -4.9097   21.2493   20.5346 O   0  0  0  0  0  0  0  0  0  0  0  0
   -5.3424   16.2035   25.1281 C   0  0  0  0  0  0  0  0  0  0  0  0
   -2.9617   19.4678   22.2787 C   0  0  0  0  0  0  0  0  0  0  0  0
   -7.1559   17.7320   23.0455 C   0  0  0  0  0  0  0  0  0  0  0  0
   -5.1682   19.1373   23.9820 C   0  0  0  0  0  0  0  0  0  0  0  0
   -6.3273   18.4314   24.2326 C   0  0  0  0  0  0  0  0  0  0  0  0
   -2.8465   18.5619   23.5468 C   0  0  0  0  0  0  0  0  0  0  0  0
   -5.2598   19.9847   22.9494 C   0  0  0  0  0  0  0  0  0  0  0  0
   -6.3813   20.9985   23.2357 C   0  0  0  0  0  0  0  0  0  0  0  0
   -3.9044   20.5486   22.7138 C   0  0  0  0  0  0  0  0  0  0  0  0
  1  7  1  0
  1 15  1  0
  1 17  1  0
  2  4  1  0
  2  9  2  0
  2 12  1  0
  3 16  1  0
  4  5  1  0
  4  6  1  0
  4 16  1  0
  7 12  1  0
  8 10  1  0
  8 11  1  0
  8 20  1  0
 13 17  1  0
 13 20  1  0
 14 16  1  0
 15 16  1  0
 15 18  1  0
 18 19  1  0
 18 20  1  0
M  END
$$$$
