
     RDKit          3D

 24 26  0  0  0  0  0  0  0  0999 V2000
   99.9418    4.1750  -92.0326 C   0  0  0  0  0  0  0  0  0  0  0  0
  100.9002    3.7501  -94.1428 O   0  0  0  0  0  0  0  0  0  0  0  0
  101.8941    3.5575  -90.7015 O   0  0  0  0  0  0  0  0  0  0  0  0
  102.0641    7.2576  -90.8756 C   0  0  0  0  0  0  0  0  0  0  0  0
  101.1899    4.3104  -92.8702 C   0  0  0  0  0  0  0  0  0  0  0  0
  100.5360    4.0585  -90.6571 C   0  0  0  0  0  0  0  0  0  0  0  0
   99.5824    9.8049  -90.9906 C   0  0  0  0  0  0  0  0  0  0  0  0
  105.5408    2.0934  -93.4163 O   0  0  0  0  0  0  0  0  0  0  0  0
   98.2734    9.6011  -90.6190 N   0  0  0  0  0  0  0  0  0  0  0  0
   98.6388    7.3034  -89.9894 N   0  0  0  0  0  0  0  0  0  0  0  0
   99.8899   10.9792  -91.4290 N   0  0  0  0  0  0  0  0  0  0  0  0
  106.0904    2.9202  -92.0733 P   0  0  0  0  0  0  0  0  0  0  0  0
  104.6545    3.5285  -91.3843 O   0  0  0  0  0  0  0  0  0  0  0  0
  107.1163    3.8951  -92.3610 O   0  0  0  0  0  0  0  0  0  0  0  0
  100.9102    6.6712  -90.3656 N   0  0  0  0  0  0  0  0  0  0  0  0
  103.6562    4.0776  -92.2957 C   0  0  0  0  0  0  0  0  0  0  0  0
  101.8339    8.5395  -91.2262 N   0  0  0  0  0  0  0  0  0  0  0  0
   97.8696    8.3949  -90.1384 C   0  0  0  0  0  0  0  0  0  0  0  0
  100.6982    5.2487  -89.8171 C   0  0  0  0  0  0  0  0  0  0  0  0
   99.9354    7.5365  -90.4029 C   0  0  0  0  0  0  0  0  0  0  0  0
  100.4309    8.7182  -90.9159 C   0  0  0  0  0  0  0  0  0  0  0  0
  106.5162    1.8628  -90.9379 O   0  0  0  0  0  0  0  0  0  0  0  0
  102.2851    3.5432  -92.0638 C   0  0  0  0  0  0  0  0  0  0  0  0
   99.0959    3.1081  -92.4155 O   0  0  0  0  0  0  0  0  0  0  0  0
  1  5  1  0
  1  6  1  0
  1 24  1  0
  2  5  1  0
  3  6  1  0
  3 23  1  0
  4 15  1  0
  4 17  2  0
  5 23  1  0
  6 19  1  0
  7  9  1  0
  7 11  1  0
  7 21  2  0
  8 12  1  0
  9 18  2  0
 10 18  1  0
 10 20  2  0
 12 13  1  0
 12 14  1  0
 12 22  2  0
 13 16  1  0
 15 19  1  0
 15 20  1  0
 16 23  1  0
 17 21  1  0
 20 21  1  0
M  END
$$$$
