
     RDKit          3D

 26 28  0  0  0  0  0  0  0  0999 V2000
   99.3677    9.8397  -90.8468 C   0  0  0  0  0  0  0  0  0  0  0  0
  100.0524    8.6771  -91.1211 C   0  0  0  0  0  0  0  0  0  0  0  0
   97.6165    8.2676  -90.1867 C   0  0  0  0  0  0  0  0  0  0  0  0
  100.4147    3.9839  -92.9240 C   0  0  0  0  0  0  0  0  0  0  0  0
   99.5442    7.5204  -90.7702 C   0  0  0  0  0  0  0  0  0  0  0  0
   99.4743    4.7633  -92.0624 C   0  0  0  0  0  0  0  0  0  0  0  0
  106.7660    3.5306  -91.6905 P   0  0  0  0  0  0  0  0  0  0  0  0
   98.4683    3.9123  -91.5178 O   0  0  0  0  0  0  0  0  0  0  0  0
   98.0047    9.6000  -90.4398 N   0  0  0  0  0  0  0  0  0  0  0  0
  103.7532    2.5869  -91.1232 O   0  0  0  0  0  0  0  0  0  0  0  0
  105.5272    3.2185  -92.6460 O   0  0  0  0  0  0  0  0  0  0  0  0
   99.9573    2.6657  -93.4265 O   0  0  0  0  0  0  0  0  0  0  0  0
  100.2979    5.2519  -90.8464 C   0  0  0  0  0  0  0  0  0  0  0  0
  100.5866    6.6459  -90.8883 N   0  0  0  0  0  0  0  0  0  0  0  0
   98.3011    7.0754  -90.2843 N   0  0  0  0  0  0  0  0  0  0  0  0
  101.5888    4.5601  -90.8607 O   0  0  0  0  0  0  0  0  0  0  0  0
  101.4701    8.6027  -91.3488 N   0  0  0  0  0  0  0  0  0  0  0  0
  104.5522    5.0919  -92.0780 O   0  0  0  0  0  0  0  0  0  0  0  0
  102.8251    3.9073  -92.6776 O   0  0  0  0  0  0  0  0  0  0  0  0
  101.6919    7.3315  -91.3680 C   0  0  0  0  0  0  0  0  0  0  0  0
  107.9151    4.1473  -92.6122 O   0  0  0  0  0  0  0  0  0  0  0  0
  104.2346    3.7077  -91.9557 P   0  0  0  0  0  0  0  0  0  0  0  0
   99.7608   11.0109  -91.0937 N   0  0  0  0  0  0  0  0  0  0  0  0
  106.9736    2.0952  -91.3836 O   0  0  0  0  0  0  0  0  0  0  0  0
  101.5678    3.7306  -92.0686 C   0  0  0  0  0  0  0  0  0  0  0  0
  106.5742    4.3082  -90.4791 O   0  0  0  0  0  0  0  0  0  0  0  0
  1  2  2  0
  1  9  1  0
  1 23  1  0
  2  5  1  0
  2 17  1  0
  3  9  2  0
  3 15  1  0
  4  6  1  0
  4 12  1  0
  4 25  1  0
  5 14  1  0
  5 15  2  0
  6  8  1  0
  6 13  1  0
  7 11  1  0
  7 21  2  0
  7 24  1  0
  7 26  1  0
 10 22  1  0
 11 22  1  0
 13 14  1  0
 13 16  1  0
 14 20  1  0
 16 25  1  0
 17 20  2  0
 18 22  2  0
 19 22  1  0
 19 25  1  0
M  END
$$$$
