
     RDKit          3D

 29 31  0  0  0  0  0  0  0  0999 V2000
  103.2307    3.9707  -90.9495 C   0  0  0  0  0  0  0  0  0  0  0  0
  103.7126    5.3358  -90.6338 O   0  0  0  0  0  0  0  0  0  0  0  0
   98.9765   10.3005  -90.8616 C   0  0  0  0  0  0  0  0  0  0  0  0
  101.9199    3.6685  -93.8085 O   0  0  0  0  0  0  0  0  0  0  0  0
   99.7309    5.4454  -90.6974 C   0  0  0  0  0  0  0  0  0  0  0  0
   99.9621    3.6330  -92.4615 C   0  0  0  0  0  0  0  0  0  0  0  0
  101.0398    7.4332  -91.4240 C   0  0  0  0  0  0  0  0  0  0  0  0
  105.0657    3.8152  -92.0824 O   0  0  0  0  0  0  0  0  0  0  0  0
  105.1608    6.3105  -92.2650 O   0  0  0  0  0  0  0  0  0  0  0  0
  100.9138    8.7349  -91.5391 N   0  0  0  0  0  0  0  0  0  0  0  0
   97.1385    9.0545  -89.9059 C   0  0  0  0  0  0  0  0  0  0  0  0
   98.9945    4.5064  -91.5611 C   0  0  0  0  0  0  0  0  0  0  0  0
   99.4974   11.4415  -91.2266 N   0  0  0  0  0  0  0  0  0  0  0  0
  107.5281    2.8035  -91.9029 O   0  0  0  0  0  0  0  0  0  0  0  0
   98.9957    7.8882  -90.5985 C   0  0  0  0  0  0  0  0  0  0  0  0
  105.4801    1.4231  -91.1630 O   0  0  0  0  0  0  0  0  0  0  0  0
   97.9673    3.9041  -90.9422 O   0  0  0  0  0  0  0  0  0  0  0  0
  101.1324    5.0270  -90.5157 O   0  0  0  0  0  0  0  0  0  0  0  0
  101.1252    4.3029  -92.9300 C   0  0  0  0  0  0  0  0  0  0  0  0
   99.8891    6.8851  -90.8724 N   0  0  0  0  0  0  0  0  0  0  0  0
  106.0157    2.4405  -92.1208 P   0  0  0  0  0  0  0  0  0  0  0  0
  106.2019    5.1244  -90.0970 O   0  0  0  0  0  0  0  0  0  0  0  0
   99.4471    2.4895  -92.9446 O   0  0  0  0  0  0  0  0  0  0  0  0
   99.6806    9.0301  -91.0130 C   0  0  0  0  0  0  0  0  0  0  0  0
   97.7395    7.8517  -90.0329 N   0  0  0  0  0  0  0  0  0  0  0  0
  105.2039    5.2820  -91.2656 P   0  0  0  0  0  0  0  0  0  0  0  0
  101.6985    4.1329  -91.5828 C   0  0  0  0  0  0  0  0  0  0  0  0
   97.7323   10.2445  -90.3115 N   0  0  0  0  0  0  0  0  0  0  0  0
  105.8257    1.9330  -93.5682 O   0  0  0  0  0  0  0  0  0  0  0  0
  1  2  1  0
  1 27  1  0
  2 26  1  0
  3 13  1  0
  3 24  2  0
  3 28  1  0
  4 19  1  0
  5 12  1  0
  5 18  1  0
  5 20  1  0
  6 12  1  0
  6 19  1  0
  6 23  1  0
  7 10  2  0
  7 20  1  0
  8 21  1  0
  8 26  1  0
  9 26  2  0
 10 24  1  0
 11 25  1  0
 11 28  2  0
 12 17  1  0
 14 21  2  0
 15 20  1  0
 15 24  1  0
 15 25  2  0
 16 21  1  0
 18 27  1  0
 19 27  1  0
 21 29  1  0
 22 26  1  0
M  END
$$$$
