
     RDKit          3D

 19 19  0  0  0  0  0  0  0  0999 V2000
    4.0541    5.2731   24.6606 C   0  0  0  0  0  0  0  0  0  0  0  0
    8.7206    3.4556   24.8022 C   0  0  0  0  0  0  0  0  0  0  0  0
   12.2635   -1.2182   22.5494 N   0  0  0  0  0  0  0  0  0  0  0  0
    2.3741    5.6553   23.2990 N   0  0  0  0  0  0  0  0  0  0  0  0
   13.0831    1.6178   21.9066 C   0  0  0  0  0  0  0  0  0  0  0  0
    1.5829    6.2301   22.3100 N   0  0  0  0  0  0  0  0  0  0  0  0
   10.8050    1.9877   25.0281 C   0  0  0  0  0  0  0  0  0  0  0  0
    9.9916    3.1528   25.6037 C   0  0  0  0  0  0  0  0  0  0  0  0
    2.9972    4.3477   24.8171 C   0  0  0  0  0  0  0  0  0  0  0  0
    5.3447    5.3296   25.4023 C   0  0  0  0  0  0  0  0  0  0  0  0
    1.9782    4.5870   23.9879 N   0  0  0  0  0  0  0  0  0  0  0  0
   11.5055   -0.1043   22.7695 C   0  0  0  0  0  0  0  0  0  0  0  0
   11.3844    2.2818   23.6383 C   0  0  0  0  0  0  0  0  0  0  0  0
    6.4493    4.5328   24.6991 C   0  0  0  0  0  0  0  0  0  0  0  0
   12.2958    1.1493   23.1325 C   0  0  2  0  0  0  0  0  0  0  0  0
    3.6043    6.1098   23.6598 C   0  0  0  0  0  0  0  0  0  0  0  0
    8.4036    5.8113   25.7101 C   0  0  0  0  0  0  0  0  0  0  0  0
    7.7594    4.4358   25.5120 C   0  0  2  0  0  0  0  0  0  0  0  0
   10.2869   -0.1536   22.6538 O   0  0  0  0  0  0  0  0  0  0  0  0
  1  9  1  0
  1 10  1  0
  1 16  2  0
  2  8  1  0
  2 18  1  0
  3 12  1  0
  4  6  1  0
  4 11  1  0
  4 16  1  0
 15  5  1  6
  7  8  1  0
  7 13  1  0
  9 11  2  0
 10 14  1  0
 12 15  1  0
 12 19  2  0
 13 15  1  0
 14 18  1  0
 18 17  1  6
M  END
$$$$
