
     RDKit          3D

 24 26  0  0  0  0  0  0  0  0999 V2000
    1.3983    5.8371   23.9408 C   0  0  0  0  0  0  0  0  0  0  0  0
    1.2607    4.5329   21.7984 N   0  0  0  0  0  0  0  0  0  0  0  0
   11.3792    1.6320   24.5313 C   0  0  0  0  0  0  0  0  0  0  0  0
   10.1617    2.2681   24.5622 N   0  0  0  0  0  0  0  0  0  0  0  0
   13.2731    1.3370   20.6874 C   0  0  0  0  0  0  0  0  0  0  0  0
   13.8937    0.8109   21.8199 C   0  0  0  0  0  0  0  0  0  0  0  0
    9.5814    2.3349   25.7152 C   0  0  0  0  0  0  0  0  0  0  0  0
    8.2976    2.9760   25.8956 C   0  0  0  0  0  0  0  0  0  0  0  0
    2.8602    5.6237   24.1972 C   0  0  0  0  0  0  0  0  0  0  0  0
    5.0241    4.8482   24.9910 C   0  0  0  0  0  0  0  0  0  0  0  0
    7.4623    3.6856   24.5918 S   0  0  0  0  0  0  0  0  0  0  0  0
    5.0417    5.9410   24.1445 C   0  0  0  0  0  0  0  0  0  0  0  0
    0.7245    4.7116   23.1453 C   0  0  0  0  0  0  0  0  0  0  0  0
   11.4068    2.0644   22.0426 C   0  0  0  0  0  0  0  0  0  0  0  0
    3.3971    4.3614   25.2358 S   0  0  0  0  0  0  0  0  0  0  0  0
   12.0244    1.5382   23.1858 C   0  0  0  0  0  0  0  0  0  0  0  0
    5.4239    4.0954   28.0527 C   0  0  0  0  0  0  0  0  0  0  0  0
    6.3454    3.8063   26.9107 C   0  0  0  0  0  0  0  0  0  0  0  0
   11.9467    1.1552   25.5087 O   0  0  0  0  0  0  0  0  0  0  0  0
    3.8099    6.3993   23.7161 N   0  0  0  0  0  0  0  0  0  0  0  0
    6.1435    4.1621   25.5827 C   0  0  0  0  0  0  0  0  0  0  0  0
    7.5931    3.1107   27.0728 C   0  0  0  0  0  0  0  0  0  0  0  0
   13.2723    0.9104   23.0665 C   0  0  0  0  0  0  0  0  0  0  0  0
   12.0316    1.9628   20.7975 C   0  0  0  0  0  0  0  0  0  0  0  0
  1  9  1  0
  1 13  1  0
  2 13  1  0
  3  4  1  0
  3 16  1  0
  3 19  2  0
  4  7  2  3
  5  6  2  0
  5 24  1  0
  6 23  1  0
  7  8  1  0
  8 11  1  0
  8 22  2  0
  9 15  1  0
  9 20  2  0
 10 12  2  0
 10 15  1  0
 10 21  1  0
 11 21  1  0
 12 20  1  0
 14 16  1  0
 14 24  2  0
 16 23  2  0
 17 18  1  0
 18 21  2  0
 18 22  1  0
M  END
$$$$
