
     RDKit          3D

 19 20  0  0  0  0  0  0  0  0999 V2000
   24.0633   53.3269   92.7331 O   0  0  0  0  0  0  0  0  0  0  0  0
   25.0494   56.1973   89.7124 C   0  0  0  0  0  0  0  0  0  0  0  0
   23.4026   54.0359   91.9721 C   0  0  0  0  0  0  0  0  0  0  0  0
   24.1368   55.1447   91.3103 C   0  0  0  0  0  0  0  0  0  0  0  0
   28.7552   58.9156   89.4362 O   0  0  0  0  0  0  0  0  0  0  0  0
   26.8770   58.5007   86.2886 C   0  0  0  0  0  0  0  0  0  0  0  0
   28.3780   56.7216   90.5930 O   0  0  0  0  0  0  0  0  0  0  0  0
   26.1258   56.1941   90.5429 N   0  0  0  0  0  0  0  0  0  0  0  0
   26.0149   57.4759   86.7113 C   0  0  0  0  0  0  0  0  0  0  0  0
   24.0469   55.0414   89.7396 C   0  0  0  0  0  0  0  0  0  0  0  0
   27.8561   58.4047   88.5329 C   0  0  0  0  0  0  0  0  0  0  0  0
   24.6584   57.0608   85.5498 Cl  0  0  0  0  0  0  0  0  0  0  0  0
   22.6475   55.3662   89.1503 N   0  0  0  0  0  0  0  0  0  0  0  0
   27.7994   58.9662   87.1960 C   0  0  0  0  0  0  0  0  0  0  0  0
   22.1955   53.8877   91.6804 O   0  0  0  0  0  0  0  0  0  0  0  0
   27.0605   57.3497   88.9517 C   0  0  0  0  0  0  0  0  0  0  0  0
   25.6251   55.2740   91.6294 C   0  0  0  0  0  0  0  0  0  0  0  0
   27.2775   56.7823   90.1628 C   0  0  0  0  0  0  0  0  0  0  0  0
   26.1142   56.8919   88.0091 C   0  0  0  0  0  0  0  0  0  0  0  0
  1  3  1  0
  2  8  1  0
  2 10  1  0
  3  4  1  0
  3 15  2  0
  4 10  1  0
  4 17  1  0
  5 11  1  0
  6  9  1  0
  6 14  2  0
  7 18  2  0
  8 17  1  0
  8 18  1  0
  9 12  1  0
  9 19  2  0
 10 13  1  0
 11 14  1  0
 11 16  2  0
 16 18  1  0
 16 19  1  0
M  END
$$$$
