
     RDKit          3D

 18 18  0  0  0  0  0  0  0  0999 V2000
   27.0849   58.4447   86.4070 C   0  0  0  0  0  0  0  0  0  0  0  0
   23.8981   55.4995   90.0484 C   0  0  0  0  0  0  0  0  0  0  0  0
   22.1635   53.8168   89.5812 N   0  0  0  0  0  0  0  0  0  0  0  0
   22.2650   55.6882   88.2678 O   0  0  0  0  0  0  0  0  0  0  0  0
   24.3628   54.7136   91.3326 C   0  0  0  0  0  0  0  0  0  0  0  0
   25.6191   54.3843   91.5114 O   0  0  0  0  0  0  0  0  0  0  0  0
   26.3939   57.4699   86.9508 C   0  0  0  0  0  0  0  0  0  0  0  0
   28.2023   58.9680   88.3075 C   0  0  0  0  0  0  0  0  0  0  0  0
   27.5846   57.9842   88.9386 C   0  0  0  0  0  0  0  0  0  0  0  0
   27.8638   57.7163   90.2959 O   0  0  0  0  0  0  0  0  0  0  0  0
   29.1637   59.8558   88.9783 C   0  0  0  0  0  0  0  0  0  0  0  0
   26.6626   57.1158   88.2691 C   0  0  0  0  0  0  0  0  0  0  0  0
   25.1039   55.4636   89.2726 N   0  0  0  0  0  0  0  0  0  0  0  0
   25.1759   56.6150   86.0407 Cl  0  0  0  0  0  0  0  0  0  0  0  0
   23.5112   54.3636   92.2707 O   0  0  0  0  0  0  0  0  0  0  0  0
   22.7116   55.0363   89.2209 C   0  0  0  0  0  0  0  0  0  0  0  0
   27.9489   59.2144   87.0315 N   0  0  0  0  0  0  0  0  0  0  0  0
   25.5112   56.6902   89.3316 C   0  0  0  0  0  0  0  0  0  0  0  0
  1  7  1  0
  1 17  2  0
  2  5  1  0
  2 13  1  0
  2 16  1  0
  3 16  1  0
  4 16  2  0
  5  6  2  0
  5 15  1  0
  7 12  2  0
  7 14  1  0
  8  9  2  0
  8 11  1  0
  8 17  1  0
  9 10  1  0
  9 12  1  0
 12 18  1  0
 13 18  1  0
M  END
$$$$
