
     RDKit          3D

 21 21  0  0  0  0  0  0  0  0999 V2000
   23.2685   54.4910   91.1098 N   0  0  0  0  0  0  0  0  0  0  0  0
   28.6092   59.0897   87.9163 N   0  0  0  0  0  0  0  0  0  0  0  0
   24.5129   55.5613   89.2871 C   0  0  0  0  0  0  0  0  0  0  0  0
   21.7618   57.0207   87.5198 O   0  0  0  0  0  0  0  0  0  0  0  0
   23.0963   55.3092   87.0594 O   0  0  0  0  0  0  0  0  0  0  0  0
   27.0929   55.6457   90.9638 O   0  0  0  0  0  0  0  0  0  0  0  0
   28.7474   60.4479   88.3746 C   0  0  0  0  0  0  0  0  0  0  0  0
   25.9491   56.0212   88.9237 C   0  0  0  0  0  0  0  0  0  0  0  0
   26.8564   58.0962   86.2095 O   0  0  0  0  0  0  0  0  0  0  0  0
   23.3978   56.4504   88.8970 N   0  0  0  0  0  0  0  0  0  0  0  0
   26.7467   57.7744   87.4062 C   0  0  0  0  0  0  0  0  0  0  0  0
   28.6576   57.8880   90.5467 O   0  0  0  0  0  0  0  0  0  0  0  0
   24.3968   54.0861   93.2955 C   0  0  0  0  0  0  0  0  0  0  0  0
   22.3171   53.1416   92.6984 O   0  0  0  0  0  0  0  0  0  0  0  0
   27.9598   57.2890   89.4892 C   0  0  0  0  0  0  0  0  0  0  0  0
   25.7525   56.9970   87.8546 N   0  0  0  0  0  0  0  0  0  0  0  0
   26.7160   56.6210   90.0550 C   0  0  0  0  0  0  0  0  0  0  0  0
   24.3885   55.3032   90.7637 C   0  0  0  0  0  0  0  0  0  0  0  0
   22.7372   56.2491   87.7790 C   0  0  0  0  0  0  0  0  0  0  0  0
   27.5751   58.3154   88.4714 C   0  0  0  0  0  0  0  0  0  0  0  0
   23.2638   53.8736   92.3397 C   0  0  0  0  0  0  0  0  0  0  0  0
  1 18  1  0
  1 21  1  0
  2  7  1  0
  2 20  1  0
  3  8  1  0
  3 10  1  0
  3 18  1  0
  4 19  1  0
  5 19  2  0
  6 17  1  0
  8 16  1  0
  8 17  1  0
  9 11  2  0
 10 19  1  0
 11 16  1  0
 11 20  1  0
 12 15  1  0
 13 21  1  0
 14 21  2  0
 15 17  1  0
 15 20  1  0
M  END
$$$$
