
     RDKit          3D

 19 20  0  0  0  0  0  0  0  0999 V2000
   24.1791   56.0543   88.9634 C   0  0  0  0  0  0  0  0  0  0  0  0
   26.4785   56.1060   90.5645 C   0  0  0  0  0  0  0  0  0  0  0  0
   28.8712   59.0753   89.8740 O   0  0  0  0  0  0  0  0  0  0  0  0
   27.5437   58.8058   86.6237 C   0  0  0  0  0  0  0  0  0  0  0  0
   25.2005   54.7399   92.1125 N   0  0  0  0  0  0  0  0  0  0  0  0
   27.8107   58.8520   88.9418 C   0  0  0  0  0  0  0  0  0  0  0  0
   25.2638   55.4897   91.0155 C   0  0  0  0  0  0  0  0  0  0  0  0
   28.2028   59.6160   87.7341 C   0  0  0  0  0  0  0  0  0  0  0  0
   27.3705   57.4166   87.1346 C   0  0  0  0  0  0  0  0  0  0  0  0
   28.7371   56.6789   88.9582 O   0  0  0  0  0  0  0  0  0  0  0  0
   22.0448   55.8684   87.6024 N   0  0  0  0  0  0  0  0  0  0  0  0
   24.1163   54.1706   92.6374 C   0  0  0  0  0  0  0  0  0  0  0  0
   26.4497   56.7299   89.2466 C   0  0  0  0  0  0  0  0  0  0  0  0
   22.9867   55.9250   88.1737 C   0  0  0  0  0  0  0  0  0  0  0  0
   25.3057   56.6529   88.4553 C   0  0  0  0  0  0  0  0  0  0  0  0
   27.5770   57.4016   88.6460 C   0  0  0  0  0  0  0  0  0  0  0  0
   24.1843   53.3216   93.8042 C   0  0  0  0  0  0  0  0  0  0  0  0
   24.1734   55.4416   90.1782 C   0  0  0  0  0  0  0  0  0  0  0  0
   22.9807   54.4709   92.2461 O   0  0  0  0  0  0  0  0  0  0  0  0
  1 14  1  0
  1 15  1  0
  1 18  2  0
  2  7  2  0
  2 13  1  0
  3  6  1  0
  4  8  1  0
  4  9  1  0
  5  7  1  0
  5 12  1  0
  6  8  1  0
  6 16  1  0
  7 18  1  0
  9 16  1  0
 10 16  1  0
 11 14  3  0
 12 17  1  0
 12 19  2  0
 13 15  2  0
 13 16  1  0
M  END
$$$$
