
     RDKit          3D

 27 30  0  0  0  0  0  0  0  0999 V2000
   22.0954   56.3801   86.1367 C   0  0  0  0  0  0  0  0  0  0  0  0
   24.6892   55.9186   89.6868 C   0  0  0  0  0  0  0  0  0  0  0  0
   28.4360   56.3065   88.7316 O   0  0  0  0  0  0  0  0  0  0  0  0
   22.1709   53.9741   91.4070 C   0  0  0  0  0  0  0  0  0  0  0  0
   25.5230   55.2959   91.8339 N   0  0  0  0  0  0  0  0  0  0  0  0
   24.3702   54.6169   92.0886 C   0  0  0  0  0  0  0  0  0  0  0  0
   28.3655   60.5734   86.0315 C   0  0  0  0  0  0  0  0  0  0  0  0
   23.5815   55.2881   89.9370 N   0  0  0  0  0  0  0  0  0  0  0  0
   27.8139   58.4930   88.8944 C   0  0  0  0  0  0  0  0  0  0  0  0
   24.1246   55.6162   85.0889 C   0  0  0  0  0  0  0  0  0  0  0  0
   21.9650   53.3141   92.6071 C   0  0  0  0  0  0  0  0  0  0  0  0
   23.3597   54.6306   91.1271 C   0  0  0  0  0  0  0  0  0  0  0  0
   28.9006   60.0174   87.2740 N   0  0  0  0  0  0  0  0  0  0  0  0
   27.3885   57.0613   89.1549 C   0  0  0  0  0  0  0  0  0  0  0  0
   27.8602   56.7807   91.4566 O   0  0  0  0  0  0  0  0  0  0  0  0
   22.8135   56.6712   87.2847 C   0  0  0  0  0  0  0  0  0  0  0  0
   25.7500   55.9357   90.6979 C   0  0  0  0  0  0  0  0  0  0  0  0
   26.3902   56.8691   88.1209 O   0  0  0  0  0  0  0  0  0  0  0  0
   24.1732   53.9393   93.2608 C   0  0  0  0  0  0  0  0  0  0  0  0
   24.1819   56.4353   87.3398 C   0  0  0  0  0  0  0  0  0  0  0  0
   27.0031   56.6058   90.4360 C   0  0  0  0  0  0  0  0  0  0  0  0
   22.7634   55.8802   85.0280 C   0  0  0  0  0  0  0  0  0  0  0  0
   28.8446   60.9308   88.4224 C   0  0  0  0  0  0  0  0  0  0  0  0
   24.8362   55.9210   86.2309 C   0  0  0  0  0  0  0  0  0  0  0  0
   22.9915   53.2836   93.5153 C   0  0  0  0  0  0  0  0  0  0  0  0
   28.1235   58.7581   87.4405 C   0  0  0  0  0  0  0  0  0  0  0  0
   25.0226   56.8547   88.5093 C   0  0  0  0  0  0  0  0  0  0  0  0
  1 16  1  0
  1 22  2  0
  2  8  2  0
  2 17  1  0
  2 27  1  0
  3 14  1  0
  4 11  1  0
  4 12  2  0
  5  6  1  0
  5 17  2  0
  6 12  1  0
  6 19  2  0
  7 13  1  0
  8 12  1  0
  9 14  1  0
  9 26  1  0
 10 22  1  0
 10 24  2  0
 11 25  2  0
 13 23  1  0
 13 26  1  0
 14 18  1  0
 14 21  1  0
 15 21  1  0
 16 20  2  0
 17 21  1  0
 18 27  1  0
 19 25  1  0
 20 24  1  0
 20 27  1  0
M  END
$$$$
