
     RDKit          3D

 22 24  0  0  0  0  0  0  0  0999 V2000
   24.1285   56.5033   86.7838 C   0  0  0  0  0  0  0  0  0  0  0  0
   25.4746   54.8755   91.1795 C   0  0  0  0  0  0  0  0  0  0  0  0
   24.9438   55.9353   89.0072 N   0  0  0  0  0  0  0  0  0  0  0  0
   25.5069   57.6153   85.5129 C   0  0  0  0  0  0  0  0  0  0  0  0
   29.1625   59.8965   88.5519 Cl  0  0  0  0  0  0  0  0  0  0  0  0
   25.3292   57.1918   86.6552 C   0  0  0  0  0  0  0  0  0  0  0  0
   24.9269   54.1980   92.3058 C   0  0  0  0  0  0  0  0  0  0  0  0
   23.9291   55.9846   88.1150 C   0  0  0  0  0  0  0  0  0  0  0  0
   25.6704   58.0671   84.3995 N   0  0  0  0  0  0  0  0  0  0  0  0
   22.6933   54.3534   91.3386 N   0  0  0  0  0  0  0  0  0  0  0  0
   22.7699   53.1933   93.7554 Cl  0  0  0  0  0  0  0  0  0  0  0  0
   23.5077   53.9511   92.3162 C   0  0  0  0  0  0  0  0  0  0  0  0
   22.0891   55.5764   88.5273 Cl  0  0  0  0  0  0  0  0  0  0  0  0
   26.1347   56.7955   88.9640 C   0  0  0  0  0  0  0  0  0  0  0  0
   23.3065   55.0060   90.2445 C   0  0  0  0  0  0  0  0  0  0  0  0
   27.2780   58.3793   87.6554 C   0  0  0  0  0  0  0  0  0  0  0  0
   24.5293   55.1618   90.2512 C   0  0  0  0  0  0  0  0  0  0  0  0
   27.0708   56.9522   89.9777 N   0  0  0  0  0  0  0  0  0  0  0  0
   28.1384   58.6592   88.7203 C   0  0  0  0  0  0  0  0  0  0  0  0
   26.2763   57.4196   87.7888 C   0  0  0  0  0  0  0  0  0  0  0  0
   27.9823   57.8922   89.8604 C   0  0  0  0  0  0  0  0  0  0  0  0
   28.8209   58.0379   90.9687 N   0  0  0  0  0  0  0  0  0  0  0  0
  1  6  1  0
  1  8  2  0
  2  7  2  0
  2 17  1  0
  3  8  1  0
  3 14  1  0
  3 17  1  0
  4  6  1  0
  4  9  3  0
  5 19  1  0
  6 20  1  0
  7 12  1  0
  8 13  1  0
 10 12  2  0
 10 15  1  0
 11 12  1  0
 14 18  2  0
 14 20  1  0
 15 17  2  0
 16 19  1  0
 16 20  1  0
 18 21  1  0
 19 21  1  0
 21 22  1  0
M  END
$$$$
