
     RDKit          3D

 14 15  0  0  0  0  0  0  0  0999 V2000
  -17.3120   -5.7260    4.4129 C   0  0  0  0  0  0  0  0  0  0  0  0
  -12.9419   -5.4412    5.4251 O   0  0  0  0  0  0  0  0  0  0  0  0
  -18.4196   -5.8309    5.2558 C   0  0  0  0  0  0  0  0  0  0  0  0
  -19.6767   -6.1065    4.8355 C   0  0  0  0  0  0  0  0  0  0  0  0
  -11.6715   -6.1735    3.3511 O   0  0  0  0  0  0  0  0  0  0  0  0
  -20.7054   -6.1932    5.5951 F   0  0  0  0  0  0  0  0  0  0  0  0
  -13.5310   -6.5195    4.7380 C   0  0  0  0  0  0  0  0  0  0  0  0
  -18.9115   -6.1610    2.7682 C   0  0  0  0  0  0  0  0  0  0  0  0
  -19.9458   -6.2596    3.5519 C   0  0  0  0  0  0  0  0  0  0  0  0
  -14.8649   -6.2587    4.1688 C   0  0  0  0  0  0  0  0  0  0  0  0
  -14.1998   -5.4517    3.2935 O   0  0  0  0  0  0  0  0  0  0  0  0
  -13.0033   -6.4059    3.2581 C   0  0  0  0  0  0  0  0  0  0  0  0
  -17.6177   -5.9035    3.1260 C   0  0  0  0  0  0  0  0  0  0  0  0
  -15.9274   -5.5267    4.8677 C   0  0  0  0  0  0  0  0  0  0  0  0
  1  3  1  0
  1 13  2  0
  1 14  1  0
  2  7  1  0
  3  4  2  0
  4  6  1  0
  4  9  1  0
  5 12  2  0
  7 10  1  0
  7 12  1  0
  8  9  2  0
  8 13  1  0
 10 11  1  0
 10 14  1  0
 11 12  1  0
M  END
$$$$
