
     RDKit          3D

 19 20  0  0  0  0  0  0  0  0999 V2000
  -20.8596   -5.8387    3.9048 C   0  0  0  0  0  0  0  0  0  0  0  0
  -15.7520   -5.9002    5.3951 C   0  0  0  0  0  0  0  0  0  0  0  0
  -20.9857   -6.9499    1.6189 C   0  0  0  0  0  0  0  0  0  0  0  0
  -18.5423   -4.8961    3.9923 C   0  0  0  0  0  0  0  0  0  0  0  0
  -18.1201   -6.0718    3.2232 N   0  0  0  0  0  0  0  0  0  0  0  0
  -14.5775   -5.8795    6.0334 C   0  0  0  0  0  0  0  0  0  0  0  0
  -13.4744   -6.1934    5.4913 N   0  0  0  0  0  0  0  0  0  0  0  0
  -20.8820   -7.3268    5.6100 C   0  0  0  0  0  0  0  0  0  0  0  0
  -13.5200   -6.5486    4.0819 C   0  0  0  0  0  0  0  0  0  0  0  0
  -19.9388   -4.7223    4.4175 C   0  0  0  0  0  0  0  0  0  0  0  0
  -12.3950   -6.8683    3.4592 N   0  0  0  0  0  0  0  0  0  0  0  0
  -17.0905   -6.4255    3.3104 C   0  0  0  0  0  0  0  0  0  0  0  0
  -14.6478   -6.5903    3.4798 N   0  0  0  0  0  0  0  0  0  0  0  0
  -15.7772   -6.2388    4.0684 C   0  0  0  0  0  0  0  0  0  0  0  0
  -21.7395   -6.4499    4.8621 O   0  0  0  0  0  0  0  0  0  0  0  0
  -20.5815   -5.8449    0.7697 O   0  0  0  0  0  0  0  0  0  0  0  0
  -17.7989   -4.0077    4.2745 O   0  0  0  0  0  0  0  0  0  0  0  0
  -20.2233   -6.7594    3.0779 C   0  0  0  0  0  0  0  0  0  0  0  0
  -18.7872   -6.7237    2.5061 C   0  0  0  0  0  0  0  0  0  0  0  0
  1 10  1  0
  1 15  1  0
  1 18  1  0
  2  6  2  0
  2 14  1  0
  3 16  1  0
  3 18  1  0
  4  5  1  0
  4 10  1  0
  4 17  2  0
  5 12  1  0
  5 19  1  0
  6  7  1  0
  7  9  1  0
  8 15  1  0
  9 11  1  0
  9 13  2  0
 12 14  1  0
 13 14  1  0
 18 19  1  0
M  END
$$$$
