
     RDKit          3D

  8  7  0  0  0  0  0  0  0  0999 V2000
  -13.0991   -5.9692    2.5622 O   0  0  0  0  0  0  0  0  0  0  0  0
  -15.9520   -6.4946    4.6360 C   0  0  0  0  0  0  0  0  0  0  0  0
  -15.0265   -6.2115    3.4860 N   0  0  0  0  0  0  0  0  0  0  0  0
  -17.4485   -6.5916    4.3880 C   0  0  0  0  0  0  0  0  0  0  0  0
  -18.3785   -6.1880    5.5199 C   0  0  0  0  0  0  0  0  0  0  0  0
  -19.7283   -5.5739    5.3284 C   0  0  0  0  0  0  0  0  0  0  0  0
  -13.7406   -6.2931    3.6069 C   0  0  0  0  0  0  0  0  0  0  0  0
  -13.1250   -6.6107    4.6172 O   0  0  0  0  0  0  0  0  0  0  0  0
  1  7  1  0
  2  3  1  0
  2  4  1  0
  3  7  1  0
  4  5  1  0
  5  6  1  0
  7  8  2  0
M  END
$$$$
