
     RDKit          3D

 25 25  0  0  0  0  0  0  0  0999 V2000
    2.6787    1.0385   51.9540 O   0  0  0  0  0  0  0  0  0  0  0  0
    4.2880    3.0275   40.3339 C   0  0  0  0  0  0  0  0  0  0  0  0
    2.7024   -1.0381   51.0898 O   0  0  0  0  0  0  0  0  0  0  0  0
    2.9706    1.2519   38.6386 C   0  0  0  0  0  0  0  0  0  0  0  0
    6.2835    1.3332   34.9124 O   0  0  0  0  0  0  0  0  0  0  0  0
    4.1926    3.3057   38.9711 C   0  0  0  0  0  0  0  0  0  0  0  0
    2.7909    1.8201   44.6282 C   0  0  0  0  0  0  0  0  0  0  0  0
    2.8449    2.2632   49.2347 C   0  0  0  0  0  0  0  0  0  0  0  0
    2.6224    0.7554   49.5233 C   0  0  0  0  0  0  0  0  0  0  0  0
    3.7423    1.8541   40.8730 C   0  0  0  0  0  0  0  0  0  0  0  0
    5.6533    2.1942   35.8403 C   0  0  0  0  0  0  0  0  0  0  0  0
    4.2046    2.7305   49.7987 C   0  0  0  0  0  0  0  0  0  0  0  0
    3.5553    2.4052   38.1241 C   0  0  0  0  0  0  0  0  0  0  0  0
    1.6431    2.0836   46.9053 C   0  0  0  0  0  0  0  0  0  0  0  0
    3.0703    0.9759   40.0044 C   0  0  0  0  0  0  0  0  0  0  0  0
    2.7063    2.1871   43.1446 C   0  0  0  0  0  0  0  0  0  0  0  0
    4.9367    3.9649   41.0867 O   0  0  0  0  0  0  0  0  0  0  0  0
    1.6857    2.5086   45.4321 C   0  0  0  0  0  0  0  0  0  0  0  0
    1.7260    3.1199   49.8565 C   0  0  0  0  0  0  0  0  0  0  0  0
    3.4553    2.7334   36.8005 O   0  0  0  0  0  0  0  0  0  0  0  0
    5.8405    3.5172   35.3694 O   0  0  0  0  0  0  0  0  0  0  0  0
    4.1651    1.8195   35.9517 C   0  0  0  0  0  0  0  0  0  0  0  0
    3.8157    1.5050   42.3400 C   0  0  0  0  0  0  0  0  0  0  0  0
    2.8949    2.5002   47.6902 C   0  0  0  0  0  0  0  0  0  0  0  0
    2.6795    0.3127   50.9750 C   0  0  0  0  0  0  0  0  0  0  0  0
  1 25  2  0
  2  6  1  0
  2 10  2  0
  2 17  1  0
  3 25  1  0
  4 13  1  0
  4 15  2  0
  5 11  1  0
  6 13  2  0
  7 16  1  0
  7 18  1  0
  8  9  1  0
  8 12  1  0
  8 19  1  0
  8 24  1  0
  9 25  1  0
 10 15  1  0
 10 23  1  0
 11 21  1  0
 11 22  1  0
 13 20  1  0
 14 18  1  0
 14 24  1  0
 16 23  1  0
 20 22  1  0
M  END
$$$$
