
     RDKit          3D

 13 13  0  0  0  0  0  0  0  0999 V2000
    1.1681   13.4619   -2.5202 C   0  0  0  0  0  0  0  0  0  0  0  0
   -0.7256   10.4327    1.2762 C   0  0  0  0  0  0  0  0  0  0  0  0
    0.4806   12.6095    1.8582 C   0  0  0  0  0  0  0  0  0  0  0  0
   -1.1548   10.2722    2.8038 C   0  0  0  0  0  0  0  0  0  0  0  0
   -0.0868   10.9451    3.6762 C   0  0  0  0  0  0  0  0  0  0  0  0
    0.0514   12.4688    3.2762 C   0  0  0  0  0  0  0  0  0  0  0  0
   -0.3263   11.6312   -1.6397 C   0  0  0  0  0  0  0  0  0  0  0  0
   -0.0230   12.2090   -0.3914 N   0  0  0  0  0  0  0  0  0  0  0  0
   -1.0421   10.6646   -1.8659 O   0  0  0  0  0  0  0  0  0  0  0  0
   -0.4982   11.8859    0.9341 C   0  0  0  0  0  0  0  0  0  0  0  0
   -1.3639    8.8700    3.1472 N   0  0  0  0  0  0  0  0  0  0  0  0
    0.2184   11.6794   -4.0804 C   0  0  0  0  0  0  0  0  0  0  0  0
    0.3201   12.2614   -2.7170 N   0  0  0  0  0  0  0  0  0  0  0  0
  1 13  1  0
  2  4  1  0
  2 10  1  0
  3  6  1  0
  3 10  1  0
  4  5  1  0
  4 11  1  0
  5  6  1  0
  7  8  1  0
  7  9  2  0
  7 13  1  0
  8 10  1  0
 12 13  1  0
M  END
$$$$
