
     RDKit          3D

 26 28  0  0  0  0  0  0  0  0999 V2000
   -0.2925   -0.3721   -0.0985 C   0  0  0  0  0  0  0  0  0  0  0  0
    6.8703   -1.2541   -1.2385 C   0  0  0  0  0  0  0  0  0  0  0  0
   -0.1858    1.0354    0.0149 C   0  0  0  0  0  0  0  0  0  0  0  0
   -1.5869   -1.0704    0.0835 C   0  0  0  0  0  0  0  0  0  0  0  0
   -5.5793   -3.2697    0.6425 S   0  0  0  0  0  0  0  0  0  0  0  0
    4.5195   -1.0329   -0.6696 C   0  0  0  0  0  0  0  0  0  0  0  0
    4.8806   -0.3427    0.5031 C   0  0  0  0  0  0  0  0  0  0  0  0
   -6.6063   -2.1597    0.8247 O   0  0  0  0  0  0  0  0  0  0  0  0
    3.1814   -1.3121   -0.9846 O   0  0  0  0  0  0  0  0  0  0  0  0
    1.0585    1.6481   -0.2207 C   0  0  0  0  0  0  0  0  0  0  0  0
   -2.9120   -2.8068    1.1509 C   0  0  0  0  0  0  0  0  0  0  0  0
   -4.0354   -2.4113    0.4167 C   0  0  0  0  0  0  0  0  0  0  0  0
    5.5240   -1.4993   -1.5270 C   0  0  0  0  0  0  0  0  0  0  0  0
   -1.5489    3.2067    0.0181 C   0  0  0  0  0  0  0  0  0  0  0  0
    2.1770    0.8837   -0.5550 C   0  0  0  0  0  0  0  0  0  0  0  0
   -1.6928   -2.1436    0.9837 C   0  0  0  0  0  0  0  0  0  0  0  0
   -3.9336   -1.3480   -0.4898 C   0  0  0  0  0  0  0  0  0  0  0  0
   -1.3181    1.8210    0.4358 N   0  0  0  0  0  0  0  0  0  0  0  0
   -2.9980    3.3703   -0.4460 C   0  0  0  0  0  0  0  0  0  0  0  0
   -2.7155   -0.6841   -0.6594 C   0  0  0  0  0  0  0  0  0  0  0  0
    7.2217   -0.5512   -0.0828 C   0  0  0  0  0  0  0  0  0  0  0  0
    6.2276   -0.0992    0.7892 C   0  0  0  0  0  0  0  0  0  0  0  0
    0.8457   -1.1289   -0.4261 C   0  0  0  0  0  0  0  0  0  0  0  0
   -1.2420    4.1544    1.1791 C   0  0  0  0  0  0  0  0  0  0  0  0
   -5.9503   -3.9543   -0.9275 N   0  0  0  0  0  0  0  0  0  0  0  0
    2.0811   -0.5130   -0.6405 C   0  0  0  0  0  0  0  0  0  0  0  0
  1  3  2  0
  1  4  1  0
  1 23  1  0
  2 13  1  0
  2 21  2  0
  3 10  1  0
  3 18  1  0
  4 16  1  0
  4 20  2  0
  5  8  2  0
  5 12  1  0
  5 25  1  6
  6  7  1  0
  6  9  1  0
  6 13  2  0
  7 22  2  0
  9 26  1  0
 10 15  2  0
 11 12  1  0
 11 16  2  0
 12 17  2  0
 14 18  1  0
 14 19  1  0
 14 24  1  0
 15 26  1  0
 17 20  1  0
 21 22  1  0
 23 26  2  0
M  END
