
     RDKit          3D

 28 29  0  0  0  0  0  0  0  0999 V2000
   -8.9040   10.7773   16.3048 C   0  0  0  0  0  0  0  0  0  0  0  0
   -8.4662   10.1729   12.7975 N   0  0  0  0  0  0  0  0  0  0  0  0
   -0.8287    8.5561   15.8092 N   0  0  0  0  0  0  0  0  0  0  0  0
   -3.7769   11.6313   17.7741 C   0  0  2  0  0  0  0  0  0  0  0  0
   -2.7658   12.4846   17.2195 O   0  0  0  0  0  0  0  0  0  0  0  0
   -4.6338   13.3894   19.1688 O   0  0  0  0  0  0  0  0  0  0  0  0
   -0.3034   11.3739   17.3301 O   0  0  0  0  0  0  0  0  0  0  0  0
   -2.9414    9.5755   16.8196 O   0  0  0  0  0  0  0  0  0  0  0  0
   -5.4912   13.4182   16.9383 C   0  0  0  0  0  0  0  0  0  0  0  0
   -3.0808    8.4184   14.6522 O   0  0  0  0  0  0  0  0  0  0  0  0
    1.7796   12.4453   16.3817 O   0  0  0  0  0  0  0  0  0  0  0  0
    0.3312    9.0587   14.8231 P   0  0  2  0  0  0  0  0  0  0  0  0
   -6.0104   12.7498   15.7718 N   0  0  0  0  0  0  0  0  0  0  0  0
    1.0254   11.0530   16.7022 P   0  0  2  0  0  0  0  0  0  0  0  0
    0.1695    8.8236   13.3579 O   0  0  0  0  0  0  0  0  0  0  0  0
   -9.1156   10.3062   15.0561 N   0  0  0  0  0  0  0  0  0  0  0  0
   -7.1118   11.9419   15.7242 C   0  0  0  0  0  0  0  0  0  0  0  0
   -2.1262    9.4354   15.4392 P   0  0  2  0  0  0  0  0  0  0  0  0
   -4.0678   10.4437   16.8539 C   0  0  0  0  0  0  0  0  0  0  0  0
   -8.2547   10.6691   14.0783 C   0  0  0  0  0  0  0  0  0  0  0  0
   -2.0073   10.7177   14.6888 O   0  0  0  0  0  0  0  0  0  0  0  0
   -5.4975   12.8280   14.5031 C   0  0  0  0  0  0  0  0  0  0  0  0
   -6.1854   12.0961   13.6505 N   0  0  0  0  0  0  0  0  0  0  0  0
   -7.1993   11.5374   14.4023 C   0  0  0  0  0  0  0  0  0  0  0  0
    1.6105    8.2074   15.3007 O   0  0  0  0  0  0  0  0  0  0  0  0
   -5.0066   12.5106   18.0824 C   0  0  1  0  0  0  0  0  0  0  0  0
    0.8436   10.5159   15.2058 O   0  0  0  0  0  0  0  0  0  0  0  0
   -7.9217   11.5944   16.7361 N   0  0  0  0  0  0  0  0  0  0  0  0
  1 16  2  0
  1 28  1  0
  2 20  1  0
  3 12  1  0
  3 18  1  0
  4  5  1  6
  4 19  1  0
  4 26  1  0
 26  6  1  1
  7 14  2  0
  8 18  1  0
  8 19  1  0
  9 13  1  0
  9 26  1  0
 10 18  1  0
 14 11  1  1
 12 15  2  0
 12 25  1  1
 12 27  1  0
 13 17  1  0
 13 22  1  0
 14 27  1  0
 16 20  1  0
 17 24  1  0
 17 28  2  0
 18 21  2  0
 20 24  2  0
 22 23  2  0
 23 24  1  0
M  END
$$$$
