
     RDKit          3D

 46 50  0  0  0  0  0  0  0  0999 V2000
    7.9424   -0.9147   -1.6581 C   0  0  0  0  0  0  0  0  0  0  0  0
  -10.6975    1.3651   -1.0288 C   0  0  0  0  0  0  0  0  0  0  0  0
   -7.4148   -0.7081   -0.2603 C   0  0  0  0  0  0  0  0  0  0  0  0
    9.7534    1.0986   -0.9209 C   0  0  0  0  0  0  0  0  0  0  0  0
    6.4555   -3.3613    0.3785 O   0  0  0  0  0  0  0  0  0  0  0  0
   -0.3086    0.3579   -0.2551 C   0  0  0  0  0  0  0  0  0  0  0  0
    2.4651   -1.2923    2.6038 N   0  0  0  0  0  0  0  0  0  0  0  0
    4.7648   -1.8290    2.2809 C   0  0  0  0  0  0  0  0  0  0  0  0
   -9.1916   -0.0304    1.1661 F   0  0  0  0  0  0  0  0  0  0  0  0
   -5.0039   -0.2024    0.3240 C   0  0  0  0  0  0  0  0  0  0  0  0
    3.6250    2.5309    0.5962 N   0  0  0  0  0  0  0  0  0  0  0  0
    0.9066   -1.4743    0.7908 O   0  0  0  0  0  0  0  0  0  0  0  0
   -2.1739   -0.7600    1.6036 C   0  0  0  0  0  0  0  0  0  0  0  0
   -2.6336    0.3158    0.7188 N   0  0  0  0  0  0  0  0  0  0  0  0
    4.2141    0.2160   -0.8291 C   0  0  0  0  0  0  0  0  0  0  0  0
   -3.7306    2.4166    2.5156 C   0  0  0  0  0  0  0  0  0  0  0  0
    5.1995    0.8759   -0.0742 C   0  0  0  0  0  0  0  0  0  0  0  0
   -0.7978   -0.4008    2.1575 C   0  0  0  0  0  0  0  0  0  0  0  0
    3.7298   -1.3662    3.0949 C   0  0  0  0  0  0  0  0  0  0  0  0
   -8.8987   -0.2872   -0.1690 C   0  0  1  0  0  0  0  0  0  0  0  0
    1.7733    0.0798   -1.6310 C   0  0  0  0  0  0  0  0  0  0  0  0
    4.8787    2.0200    0.6505 C   0  0  0  0  0  0  0  0  0  0  0  0
    4.6368   -0.9235   -1.7549 C   0  0  0  0  0  0  0  0  0  0  0  0
   -1.7234    0.7799   -0.2949 C   0  0  0  0  0  0  0  0  0  0  0  0
    2.1546   -1.7471    1.3571 C   0  0  0  0  0  0  0  0  0  0  0  0
    8.8842    1.3006   -1.9963 C   0  0  0  0  0  0  0  0  0  0  0  0
   -4.2988    1.1705    2.1757 O   0  0  0  0  0  0  0  0  0  0  0  0
   -6.4366    0.3480    0.2817 C   0  0  0  0  0  0  0  0  0  0  0  0
   -9.2057    0.9821   -1.0192 C   0  0  1  0  0  0  0  0  0  0  0  0
    2.6414    1.9385   -0.1268 C   0  0  0  0  0  0  0  0  0  0  0  0
    7.9795    0.3000   -2.3637 C   0  0  0  0  0  0  0  0  0  0  0  0
    2.8835    0.7386   -0.8238 C   0  0  0  0  0  0  0  0  0  0  0  0
    6.9273   -1.9665   -2.0120 C   0  0  0  0  0  0  0  0  0  0  0  0
    0.4112    0.5406   -1.3326 N   0  0  0  0  0  0  0  0  0  0  0  0
    5.5686   -2.5314    0.0390 C   0  0  0  0  0  0  0  0  0  0  0  0
    5.7060   -1.7908   -1.2063 N   0  0  0  0  0  0  0  0  0  0  0  0
  -11.1332    1.6652    0.2684 O   0  0  0  0  0  0  0  0  0  0  0  0
   -8.7422    0.8336   -2.3390 O   0  0  0  0  0  0  0  0  0  0  0  0
   -9.6767   -1.3686   -0.6222 O   0  0  0  0  0  0  0  0  0  0  0  0
    9.7185   -0.1043   -0.2105 C   0  0  0  0  0  0  0  0  0  0  0  0
    8.8148   -1.1074   -0.5740 C   0  0  0  0  0  0  0  0  0  0  0  0
   -4.0040    0.8504    0.8265 C   0  0  2  0  0  0  0  0  0  0  0  0
   -2.1313    1.5184   -1.2329 O   0  0  0  0  0  0  0  0  0  0  0  0
    3.1342   -2.3631    0.5802 C   0  0  0  0  0  0  0  0  0  0  0  0
    0.2521   -0.2299    1.0367 C   0  0  2  0  0  0  0  0  0  0  0  0
    4.4698   -2.2795    0.9870 C   0  0  0  0  0  0  0  0  0  0  0  0
  1 31  2  0
  1 33  1  0
  1 41  1  0
  2 29  1  0
  2 37  1  0
  3 20  1  0
  3 28  1  0
  4 26  2  0
  4 40  1  0
  5 35  2  0
  6 24  1  0
  6 34  2  3
  6 45  1  0
  7 19  1  0
  7 25  2  0
  8 19  2  0
  8 46  1  0
  9 20  1  0
 10 28  1  0
 42 10  1  1
 11 22  1  0
 11 30  2  0
 12 25  1  0
 12 45  1  0
 13 14  1  0
 13 18  1  0
 14 24  1  0
 14 42  1  0
 15 17  1  0
 15 23  1  0
 15 32  2  0
 16 27  1  0
 17 22  2  0
 45 18  1  1
 20 29  1  0
 20 39  1  6
 21 32  1  0
 21 34  1  0
 23 36  1  0
 24 43  2  0
 25 44  1  0
 26 31  1  0
 27 42  1  0
 29 38  1  6
 30 32  1  0
 33 36  1  0
 35 36  1  0
 35 46  1  0
 40 41  2  0
 44 46  2  0
M  END
