
     RDKit          3D

 24 26  0  0  0  0  0  0  0  0999 V2000
   -1.7579    2.4267    1.3316 C   0  0  0  0  0  0  0  0  0  0  0  0
   -2.6175   -2.2625    2.3392 O   0  0  0  0  0  0  0  0  0  0  0  0
   -2.0966    1.0708    1.2306 C   0  0  0  0  0  0  0  0  0  0  0  0
   -3.3645    2.9156   -0.4295 C   0  0  0  0  0  0  0  0  0  0  0  0
   -3.3593   -0.8152    0.4897 C   0  0  1  0  0  0  0  0  0  0  0  0
   -4.6106   -1.0042    1.1102 O   0  0  0  0  0  0  0  0  0  0  0  0
    2.2458   -0.2033   -0.6816 C   0  0  1  0  0  0  0  0  0  0  0  0
    1.0170    0.2400    0.1994 C   0  0  1  0  0  0  0  0  0  0  0  0
    2.4843    0.9113   -1.7594 C   0  0  0  0  0  0  0  0  0  0  0  0
   -2.3847    3.3470    0.4797 C   0  0  0  0  0  0  0  0  0  0  0  0
   -3.0688    0.6495    0.3470 C   0  0  0  0  0  0  0  0  0  0  0  0
    2.1534   -0.6740    2.2851 C   0  0  0  0  0  0  0  0  0  0  0  0
   -3.7245    1.5621   -0.4885 C   0  0  0  0  0  0  0  0  0  0  0  0
   -0.1845   -0.0346    2.4178 N   0  0  0  0  0  0  0  0  0  0  0  0
   -1.6340   -0.0539    2.0963 C   0  0  2  0  0  0  0  0  0  0  0  0
    3.5151   -0.3428    0.2071 C   0  0  0  0  0  0  0  0  0  0  0  0
    1.9421   -1.5543   -1.3843 C   0  0  0  0  0  0  0  0  0  0  0  0
    3.6800    0.7176   -2.7143 C   0  0  0  0  0  0  0  0  0  0  0  0
   -2.1859   -1.3221    1.3894 C   0  0  1  0  0  0  0  0  0  0  0  0
   -0.1518    0.1602   -0.5765 O   0  0  0  0  0  0  0  0  0  0  0  0
    3.4555   -0.3300   -3.6182 O   0  0  0  0  0  0  0  0  0  0  0  0
    3.2896   -1.2261    1.4343 C   0  0  0  0  0  0  0  0  0  0  0  0
   -3.3668   -1.5213   -0.8747 C   0  0  0  0  0  0  0  0  0  0  0  0
    0.8317   -0.6022    1.4998 C   0  0  1  0  0  0  0  0  0  0  0  0
  1  3  2  0
  1 10  1  0
 19  2  1  1
  3 11  1  0
  3 15  1  0
  4 10  2  0
  4 13  1  0
  5  6  1  0
  5 11  1  0
  5 19  1  0
  5 23  1  6
  7  8  1  0
  7  9  1  0
  7 16  1  0
  7 17  1  6
  8 20  1  6
  8 24  1  0
  9 18  1  0
 11 13  2  0
 12 22  1  0
 12 24  1  0
 15 14  1  6
 24 14  1  1
 15 19  1  0
 16 22  1  0
 18 21  1  0
M  END
