
     RDKit          3D

  8  7  0  0  0  0  0  0  0  0999 V2000
    0.2303   -0.2339    1.6934 O   0  0  0  0  0  0  0  0  0  0  0  0
   -2.2552    0.1572    0.3631 C   0  0  0  0  0  0  0  0  0  0  0  0
    0.7911    0.0061    0.5905 C   0  0  0  0  0  0  0  0  0  0  0  0
   -1.3480   -0.2792   -0.7478 C   0  0  0  0  0  0  0  0  0  0  0  0
    0.8096   -0.2753   -1.7976 O   0  0  0  0  0  0  0  0  0  0  0  0
   -1.8657   -0.7334   -1.8035 O   0  0  0  0  0  0  0  0  0  0  0  0
    0.0874   -0.1866   -0.6522 N   0  0  0  0  0  0  0  0  0  0  0  0
    2.2298    0.4167    0.5848 C   0  0  0  0  0  0  0  0  0  0  0  0
  1  3  2  0
  2  4  1  0
  3  7  1  0
  3  8  1  0
  4  6  2  0
  4  7  1  0
  5  7  1  0
M  END
