
     RDKit          3D

  8  7  0  0  0  0  0  0  0  0999 V2000
   -0.8527   -1.5674   -0.2852 O   0  0  0  0  0  0  0  0  0  0  0  0
    1.4160    0.0249   -1.2898 O   0  0  0  0  0  0  0  0  0  0  0  0
   -1.2733    1.3446   -0.4878 O   0  0  0  0  0  0  0  0  0  0  0  0
    2.2203   -0.5890    0.7708 O   0  0  0  0  0  0  0  0  0  0  0  0
   -0.9165    0.6350    0.6556 C   0  0  0  0  0  0  0  0  0  0  0  0
   -1.2131    1.0900    1.7929 O   0  0  0  0  0  0  0  0  0  0  0  0
   -0.1632   -0.6598    0.5374 C   0  0  0  0  0  0  0  0  0  0  0  0
    1.2251   -0.4140    0.0176 C   0  0  0  0  0  0  0  0  0  0  0  0
  1  7  1  0
  2  8  1  0
  3  5  1  0
  4  8  2  0
  5  6  2  0
  5  7  1  0
  7  8  1  0
M  END
