
     RDKit          3D

 13 13  0  0  0  0  0  0  0  0999 V2000
   -0.6969    0.7465    0.8385 O   0  0  0  0  0  0  0  0  0  0  0  0
   -2.4746    0.0816   -1.2861 N   0  0  0  0  0  0  0  0  0  0  0  0
    2.1224    0.8749    0.2293 C   0  0  0  0  0  0  0  0  0  0  0  0
    3.4869   -1.4188   -0.6069 C   0  0  0  0  0  0  0  0  0  0  0  0
    3.4900    0.9366   -0.0564 C   0  0  0  0  0  0  0  0  0  0  0  0
   -4.4341    0.3871    0.1063 C   0  0  0  0  0  0  0  0  0  0  0  0
   -2.9522    0.3782   -0.1183 C   0  0  0  0  0  0  0  0  0  0  0  0
   -0.6459   -1.4950    0.2976 O   0  0  0  0  0  0  0  0  0  0  0  0
   -0.0250   -0.4015    0.4004 C   0  0  0  0  0  0  0  0  0  0  0  0
    2.1193   -1.4865   -0.3227 C   0  0  0  0  0  0  0  0  0  0  0  0
    4.1716   -0.2088   -0.4739 C   0  0  0  0  0  0  0  0  0  0  0  0
    1.4222   -0.3385    0.0997 C   0  0  0  0  0  0  0  0  0  0  0  0
   -2.0751    0.8270    0.9258 N   0  0  0  0  0  0  0  0  0  0  0  0
  1  9  1  0
  1 13  1  0
  2  7  2  0
  3  5  2  0
  3 12  1  0
  4 10  1  0
  4 11  2  0
  5 11  1  0
  6  7  1  0
  7 13  1  0
  8  9  2  0
  9 12  1  0
 10 12  2  0
M  END
