
     RDKit          3D

 14 14  0  0  0  0  0  0  0  0999 V2000
   -0.4111   -1.5727   -1.3532 O   0  0  0  0  0  0  0  0  0  0  0  0
   -3.2367   -0.4722    1.6245 N   0  0  0  0  0  0  0  0  0  0  0  0
    1.5844    0.9290    0.3317 C   0  0  0  0  0  0  0  0  0  0  0  0
    1.2919   -0.2813   -0.3259 C   0  0  0  0  0  0  0  0  0  0  0  0
   -0.0987   -0.7878   -0.4159 C   0  0  0  0  0  0  0  0  0  0  0  0
    3.6572   -0.5275   -0.8534 C   0  0  0  0  0  0  0  0  0  0  0  0
   -3.8324   -0.5152   -1.6003 O   0  0  0  0  0  0  0  0  0  0  0  0
    3.9361    0.6681   -0.1881 C   0  0  0  0  0  0  0  0  0  0  0  0
   -2.5078   -0.7447    0.3846 C   0  0  2  0  0  0  0  0  0  0  0  0
   -1.0909   -0.4120    0.5544 N   0  0  0  0  0  0  0  0  0  0  0  0
    2.3430   -0.9994   -0.9269 C   0  0  0  0  0  0  0  0  0  0  0  0
   -2.8410    1.4152   -0.8485 O   0  0  0  0  0  0  0  0  0  0  0  0
   -3.0914    0.0494   -0.7518 C   0  0  0  0  0  0  0  0  0  0  0  0
    2.9006    1.3966    0.4010 C   0  0  0  0  0  0  0  0  0  0  0  0
  1  5  2  0
  9  2  1  1
  3  4  1  0
  3 14  2  0
  4  5  1  0
  4 11  2  0
  5 10  1  0
  6  8  2  0
  6 11  1  0
  7 13  2  0
  8 14  1  0
  9 10  1  0
  9 13  1  0
 12 13  1  0
M  END
