
     RDKit          3D

 13 14  0  0  0  0  0  0  0  0999 V2000
    4.2216    0.3343   -1.3390 O   0  0  0  0  0  0  0  0  0  0  0  0
    1.3888    0.5510   -0.0589 N   0  0  0  0  0  0  0  0  0  0  0  0
    0.9982   -1.4961    0.6655 C   0  0  0  0  0  0  0  0  0  0  0  0
   -1.4582    1.2152   -0.4161 C   0  0  0  0  0  0  0  0  0  0  0  0
    2.5230   -0.0728    0.2177 N   0  0  0  0  0  0  0  0  0  0  0  0
   -3.7754    0.5299   -0.2576 C   0  0  0  0  0  0  0  0  0  0  0  0
    2.3304   -1.3110    0.6450 N   0  0  0  0  0  0  0  0  0  0  0  0
   -2.0140   -1.0077    0.3762 C   0  0  0  0  0  0  0  0  0  0  0  0
   -2.8188    1.4966   -0.5736 C   0  0  0  0  0  0  0  0  0  0  0  0
   -1.0395   -0.0410    0.0608 C   0  0  0  0  0  0  0  0  0  0  0  0
   -3.3734   -0.7204    0.2167 C   0  0  0  0  0  0  0  0  0  0  0  0
    0.4058   -0.3257    0.2229 C   0  0  0  0  0  0  0  0  0  0  0  0
    3.8399    0.5107   -0.0034 C   0  0  0  0  0  0  0  0  0  0  0  0
  1 13  1  0
  2  5  1  0
  2 12  2  0
  3  7  2  0
  3 12  1  0
  4  9  1  0
  4 10  2  0
  5  7  1  0
  5 13  1  0
  6  9  2  0
  6 11  1  0
  8 10  1  0
  8 11  2  0
 10 12  1  0
M  END
