
     RDKit          3D

 30 34  0  0  0  0  0  0  0  0999 V2000
  -25.0487  -32.8581   43.6595 C   0  0  0  0  0  0  0  0  0  0  0  0
  -27.4947  -34.7155   43.7586 C   0  0  0  0  0  0  0  0  0  0  0  0
  -27.9913  -34.4024   40.2522 C   0  0  0  0  0  0  0  0  0  0  0  0
  -26.7447  -35.1944   39.8875 C   0  0  0  0  0  0  0  0  0  0  0  0
  -25.8469  -36.1478   42.8009 O   0  0  0  0  0  0  0  0  0  0  0  0
  -26.3909  -30.8599   42.8348 C   0  0  0  0  0  0  0  0  0  0  0  0
  -23.4793  -32.8621   39.3734 C   0  0  0  0  0  0  0  0  0  0  0  0
  -28.8284  -34.3008   38.9978 C   0  0  0  0  0  0  0  0  0  0  0  0
  -22.5430  -31.9469   38.9116 C   0  0  0  0  0  0  0  0  0  0  0  0
  -22.7122  -32.7219   36.7367 C   0  0  0  0  0  0  0  0  0  0  0  0
  -24.9111  -33.8487   41.2615 C   0  0  0  0  0  0  0  0  0  0  0  0
  -26.2427  -34.7152   38.5461 C   0  0  0  0  0  0  0  0  0  0  0  0
  -24.0416  -33.7577   38.4707 C   0  0  0  0  0  0  0  0  0  0  0  0
  -28.2789  -34.3211   37.7684 C   0  0  0  0  0  0  0  0  0  0  0  0
  -26.0754  -31.7616   43.8613 C   0  0  0  0  0  0  0  0  0  0  0  0
  -25.2713  -34.9693   40.3325 C   0  0  2  0  0  0  0  0  0  0  0  0
  -23.4768  -31.9306   41.4933 O   0  0  0  0  0  0  0  0  0  0  0  0
  -26.2132  -34.9936   43.0173 C   0  0  0  0  0  0  0  0  0  0  0  0
  -27.6583  -30.6037   45.3034 C   0  0  0  0  0  0  0  0  0  0  0  0
  -23.6753  -33.6555   37.1204 C   0  0  0  0  0  0  0  0  0  0  0  0
  -27.3398  -29.8552   43.0348 C   0  0  0  0  0  0  0  0  0  0  0  0
  -27.9769  -29.7304   44.2667 C   0  0  0  0  0  0  0  0  0  0  0  0
  -24.2494  -34.4500   36.1637 O   0  0  0  0  0  0  0  0  0  0  0  0
  -23.9223  -32.8192   40.7779 C   0  0  0  0  0  0  0  0  0  0  0  0
  -22.1376  -31.8701   37.6222 N   0  0  0  0  0  0  0  0  0  0  0  0
  -26.7092  -31.6083   45.1049 C   0  0  0  0  0  0  0  0  0  0  0  0
  -25.3771  -33.8333   42.5411 C   0  0  0  0  0  0  0  0  0  0  0  0
  -22.2803  -32.6049   35.3049 C   0  0  0  0  0  0  0  0  0  0  0  0
  -26.9230  -34.3522   37.5263 N   0  0  0  0  0  0  0  0  0  0  0  0
  -24.9408  -34.7375   38.9345 N   0  0  0  0  0  0  0  0  0  0  0  0
  1 15  1  0
  1 27  1  0
  2 18  1  0
  3  4  1  0
  3  8  1  0
  4 12  1  0
 16  4  1  6
  5 18  2  0
  6 15  1  0
  6 21  2  0
  7  9  1  0
  7 13  2  0
  7 24  1  0
  8 14  2  0
  9 25  2  0
 10 20  2  0
 10 25  1  0
 10 28  1  0
 11 16  1  0
 11 24  1  0
 11 27  2  3
 12 29  2  0
 12 30  1  0
 13 20  1  0
 13 30  1  0
 14 29  1  0
 15 26  2  0
 16 30  1  0
 17 24  2  0
 18 27  1  0
 19 22  2  0
 19 26  1  0
 20 23  1  0
 21 22  1  0
M  END
$$$$
