
     RDKit          3D

 17 17  0  0  0  0  0  0  0  0999 V2000
    2.8642    0.6619   -0.9176 C   0  0  0  0  0  0  0  0  0  0  0  0
   -3.6845    0.1961    0.5706 C   0  0  2  0  0  0  0  0  0  0  0  0
   -4.4345   -0.2843   -0.6819 C   0  0  0  0  0  0  0  0  0  0  0  0
    4.2299    0.0142   -1.1914 C   0  0  0  0  0  0  0  0  0  0  0  0
   -2.3488    0.4951    0.2138 O   0  0  0  0  0  0  0  0  0  0  0  0
    4.4784   -1.2182   -0.3538 C   0  0  0  0  0  0  0  0  0  0  0  0
    4.7782   -1.2181    0.9590 C   0  0  0  0  0  0  0  0  0  0  0  0
   -3.6553   -0.9185    1.6314 C   0  0  0  0  0  0  0  0  0  0  0  0
    0.3493    0.4223   -1.0313 C   0  0  0  0  0  0  0  0  0  0  0  0
   -0.8189   -0.5147   -1.3659 C   0  0  0  0  0  0  0  0  0  0  0  0
    1.6958   -0.2732   -1.2628 C   0  0  0  0  0  0  0  0  0  0  0  0
   -3.3287   -0.7076   -1.5970 C   0  0  0  0  0  0  0  0  0  0  0  0
   -4.3451    1.4557    1.1729 C   0  0  0  0  0  0  0  0  0  0  0  0
   -2.1746    0.1750   -1.1501 C   0  0  1  0  0  0  0  0  0  0  0  0
    4.8612    0.0083    1.8297 C   0  0  0  0  0  0  0  0  0  0  0  0
    3.6025    0.1970    2.5426 N   0  0  0  0  0  0  0  0  0  0  0  0
   -4.2993    2.5319    0.2727 O   0  0  0  0  0  0  0  0  0  0  0  0
  1  4  1  0
  1 11  1  0
  2  3  1  0
  2  5  1  0
  2  8  1  1
  2 13  1  0
  3 12  1  0
  4  6  1  0
  5 14  1  0
  6  7  2  3
  7 15  1  0
  9 10  1  0
  9 11  1  0
 14 10  1  1
 12 14  1  0
 13 17  1  0
 15 16  1  0
M  END
