
     RDKit          3D

 26 27  0  0  0  0  0  0  0  0999 V2000
    4.3951   -0.3453   -0.5487 C   0  0  0  0  0  0  0  0  0  0  0  0
    0.6060    1.5238   -1.4016 C   0  0  0  0  0  0  0  0  0  0  0  0
   -2.8874    2.3167   -0.3510 C   0  0  0  0  0  0  0  0  0  0  0  0
   -1.9674   -0.7079    0.2507 C   0  0  0  0  0  0  0  0  0  0  0  0
    0.4260   -0.8488   -1.3305 O   0  0  0  0  0  0  0  0  0  0  0  0
   -2.4927    1.2357   -1.3660 C   0  0  0  0  0  0  0  0  0  0  0  0
    6.4880   -1.0316    0.4797 C   0  0  0  0  0  0  0  0  0  0  0  0
   -4.1376    0.5387    1.0239 C   0  0  0  0  0  0  0  0  0  0  0  0
   -5.5919   -1.8828   -0.1862 C   0  0  0  0  0  0  0  0  0  0  0  0
   -0.1726    0.2519   -1.1944 C   0  0  0  0  0  0  0  0  0  0  0  0
   -1.5559    0.2604   -0.7864 N   0  0  0  0  0  0  0  0  0  0  0  0
   -3.5076   -0.8030    0.5086 C   0  0  1  0  0  0  0  0  0  0  0  0
    4.4425   -2.2197    0.9985 C   0  0  0  0  0  0  0  0  0  0  0  0
    1.5833    1.7047   -0.3205 N   0  0  0  0  0  0  0  0  0  0  0  0
   -3.2240    1.7775    1.0490 C   0  0  0  0  0  0  0  0  0  0  0  0
    1.1119    2.0583    1.0251 C   0  0  0  0  0  0  0  0  0  0  0  0
    5.7780   -0.1767   -0.3690 C   0  0  0  0  0  0  0  0  0  0  0  0
   -4.2996   -1.3326   -0.6469 N   0  0  0  0  0  0  0  0  0  0  0  0
    1.4497    0.9512    2.0185 C   0  0  0  0  0  0  0  0  0  0  0  0
    6.5180   -2.9132    2.0142 O   0  0  0  0  0  0  0  0  0  0  0  0
    3.7308   -1.3673    0.1494 C   0  0  0  0  0  0  0  0  0  0  0  0
    3.7497    2.5393   -0.0525 O   0  0  0  0  0  0  0  0  0  0  0  0
    3.6204    0.5989   -1.4271 C   0  0  0  0  0  0  0  0  0  0  0  0
    5.8214   -2.0563    1.1651 C   0  0  0  0  0  0  0  0  0  0  0  0
    2.9987    1.6797   -0.5889 C   0  0  0  0  0  0  0  0  0  0  0  0
   -3.6073   -2.3773   -1.4266 C   0  0  0  0  0  0  0  0  0  0  0  0
  1 17  1  0
  1 21  2  0
  1 23  1  0
  2 10  1  0
  2 14  1  0
  3  6  1  0
  3 15  1  0
  4 11  1  0
  4 12  1  0
  5 10  2  0
  6 11  1  0
  7 17  2  0
  7 24  1  0
  8 12  1  0
  8 15  1  0
  9 18  1  0
 10 11  1  0
 12 18  1  6
 13 21  1  0
 13 24  2  0
 14 16  1  0
 14 25  1  0
 16 19  1  0
 18 26  1  0
 20 24  1  0
 22 25  2  0
 23 25  1  0
M  END
