
     RDKit          3D

 26 28  0  0  0  0  0  0  0  0999 V2000
   -3.8627    4.5968    0.0769 C   0  0  0  0  0  0  0  0  0  0  0  0
   -5.1981    0.0818   -0.4419 C   0  0  0  0  0  0  0  0  0  0  0  0
   -2.9594   -0.0767    0.6617 C   0  0  0  0  0  0  0  0  0  0  0  0
    6.7341    0.1587   -1.5733 C   0  0  0  0  0  0  0  0  0  0  0  0
    6.5831    2.3482   -0.5578 C   0  0  0  0  0  0  0  0  0  0  0  0
    1.5009   -2.7986    0.6148 C   0  0  0  0  0  0  0  0  0  0  0  0
    0.3758   -0.5092    0.3428 C   0  0  0  0  0  0  0  0  0  0  0  0
    5.5539   -0.2257   -0.9291 C   0  0  0  0  0  0  0  0  0  0  0  0
    2.7990   -0.7818    0.0976 N   0  0  0  0  0  0  0  0  0  0  0  0
    2.7119   -3.4393    0.9158 O   0  0  0  0  0  0  0  0  0  0  0  0
   -4.1149   -2.1849   -0.1275 C   0  0  0  0  0  0  0  0  0  0  0  0
   -4.1769    3.2970    0.5615 O   0  0  0  0  0  0  0  0  0  0  0  0
    4.8694    0.6799   -0.0959 C   0  0  0  0  0  0  0  0  0  0  0  0
   -4.1712    0.7937    0.4652 C   0  0  0  0  0  0  0  0  0  0  0  0
   -1.6948   -2.0054    0.7740 C   0  0  0  0  0  0  0  0  0  0  0  0
    1.6257   -1.2787    0.8236 C   0  0  2  0  0  0  0  0  0  0  0  0
   -3.8004    2.1315   -0.1122 C   0  0  0  0  0  0  0  0  0  0  0  0
    3.2679    0.9099    1.6379 O   0  0  0  0  0  0  0  0  0  0  0  0
    3.6205    0.2859    0.5995 C   0  0  0  0  0  0  0  0  0  0  0  0
    7.2468    1.4446   -1.3902 C   0  0  0  0  0  0  0  0  0  0  0  0
   -3.1642    2.1972   -1.2008 O   0  0  0  0  0  0  0  0  0  0  0  0
   -5.4175   -1.3796   -0.0144 C   0  0  0  0  0  0  0  0  0  0  0  0
   -3.0272   -1.4820    0.5463 N   0  0  0  0  0  0  0  0  0  0  0  0
   -1.8124    0.3605    1.0510 N   0  0  0  0  0  0  0  0  0  0  0  0
    5.4032    1.9692    0.0898 C   0  0  0  0  0  0  0  0  0  0  0  0
   -0.8814   -0.7573    1.2041 C   0  0  2  0  0  0  0  0  0  0  0  0
  1 12  1  0
  2 14  1  0
  2 22  1  0
  3 14  1  0
  3 23  1  0
  3 24  2  0
  4  8  1  0
  4 20  2  0
  5 20  1  0
  5 25  2  0
  6 10  1  0
 16  6  1  6
  7 16  1  0
 26  7  1  6
  8 13  2  0
  9 16  1  0
  9 19  1  0
 11 22  1  0
 11 23  1  0
 12 17  1  0
 13 19  1  0
 13 25  1  0
 14 17  1  0
 15 23  1  0
 15 26  1  0
 17 21  2  0
 18 19  2  0
 24 26  1  0
M  END
