
     RDKit          3D

 23 24  0  0  0  0  0  0  0  0999 V2000
    0.1173   -2.2841   -1.9250 C   0  0  2  0  0  0  0  0  0  0  0  0
    4.1123   -0.4207    0.5775 C   0  0  0  0  0  0  0  0  0  0  0  0
    3.8702    0.7865    1.2546 C   0  0  0  0  0  0  0  0  0  0  0  0
   -0.5299   -0.9011   -2.1819 C   0  0  0  0  0  0  0  0  0  0  0  0
    6.2827    0.4259   -0.1155 C   0  0  0  0  0  0  0  0  0  0  0  0
   -1.7468    1.5634    1.3569 C   0  0  0  0  0  0  0  0  0  0  0  0
    3.0598   -1.4962    0.5450 C   0  0  0  0  0  0  0  0  0  0  0  0
   -1.9063    0.8881   -1.0441 C   0  0  0  0  0  0  0  0  0  0  0  0
   -3.5734   -0.7235    1.3193 C   0  0  0  0  0  0  0  0  0  0  0  0
   -1.3348   -0.4289   -1.0527 N   0  0  0  0  0  0  0  0  0  0  0  0
   -0.9469   -3.3906   -1.8895 C   0  0  0  0  0  0  0  0  0  0  0  0
   -1.6865    1.6625   -2.0170 O   0  0  0  0  0  0  0  0  0  0  0  0
    2.1095   -1.2823   -0.6380 C   0  0  0  0  0  0  0  0  0  0  0  0
   -3.4154    2.7167   -0.1389 C   0  0  0  0  0  0  0  0  0  0  0  0
   -3.9023    0.4450    0.4792 C   0  0  2  0  0  0  0  0  0  0  0  0
    0.9985   -2.3430   -0.6526 C   0  0  0  0  0  0  0  0  0  0  0  0
    6.0405    1.6183    0.5721 C   0  0  0  0  0  0  0  0  0  0  0  0
    5.3211   -0.5895   -0.1184 C   0  0  0  0  0  0  0  0  0  0  0  0
   -4.6334    2.7689    0.7752 C   0  0  0  0  0  0  0  0  0  0  0  0
   -2.7084    1.3788    0.1565 C   0  0  2  0  0  0  0  0  0  0  0  0
    4.8344    1.7993    1.2547 C   0  0  0  0  0  0  0  0  0  0  0  0
   -4.9600    1.3259    1.1518 C   0  0  0  0  0  0  0  0  0  0  0  0
   -3.3164   -1.6400    1.9777 N   0  0  0  0  0  0  0  0  0  0  0  0
  1  4  1  0
  1 11  1  1
  1 16  1  0
  2  3  1  0
  2  7  1  0
  2 18  2  0
  3 21  2  0
  4 10  1  0
  5 17  2  0
  5 18  1  0
 20  6  1  1
  7 13  1  0
  8 10  1  0
  8 12  2  0
  8 20  1  0
 15  9  1  1
  9 23  3  0
 13 16  1  0
 14 19  1  0
 14 20  1  0
 15 20  1  0
 15 22  1  0
 17 21  1  0
 19 22  1  0
M  END
