
     RDKit          3D

 29 30  0  0  0  0  0  0  0  0999 V2000
   11.0123    8.8871   36.3505 C   0  0  0  0  0  0  0  0  0  0  0  0
   12.5268    7.2616   29.9501 C   0  0  0  0  0  0  0  0  0  0  0  0
   15.8724   10.3903   36.5594 C   0  0  0  0  0  0  0  0  0  0  0  0
    8.3269   10.7396   31.9532 O   0  0  0  0  0  0  0  0  0  0  0  0
   12.8558    6.8075   34.3858 O   0  0  0  0  0  0  0  0  0  0  0  0
   10.7426   11.5606   35.4436 N   0  0  0  0  0  0  0  0  0  0  0  0
   14.8574    5.8750   32.5291 C   0  0  0  0  0  0  0  0  0  0  0  0
   11.5728    9.6101   35.0993 C   0  0  0  0  0  0  0  0  0  0  0  0
   14.4523    8.5275   35.1173 C   0  0  0  0  0  0  0  0  0  0  0  0
    9.6957   11.5627   34.5889 C   0  0  0  0  0  0  0  0  0  0  0  0
   11.9886   10.7113   35.4531 C   0  0  0  0  0  0  0  0  0  0  0  0
   14.9436    7.0351   33.4052 N   0  0  0  0  0  0  0  0  0  0  0  0
   10.2767   11.4539   31.3952 N   0  0  0  0  0  0  0  0  0  0  0  0
   14.9168    9.6426   34.4280 C   0  0  0  0  0  0  0  0  0  0  0  0
   15.3727    9.2784   37.2528 C   0  0  0  0  0  0  0  0  0  0  0  0
   15.6571   10.5631   35.1730 C   0  0  0  0  0  0  0  0  0  0  0  0
   14.2204    6.1175   31.1934 C   0  0  0  0  0  0  0  0  0  0  0  0
    8.7549   12.2613   34.6252 O   0  0  0  0  0  0  0  0  0  0  0  0
   13.9690    7.3656   34.2772 C   0  0  0  0  0  0  0  0  0  0  0  0
   14.6138    8.3807   36.5083 C   0  0  0  0  0  0  0  0  0  0  0  0
   16.6385   11.3269   37.2205 O   0  0  0  0  0  0  0  0  0  0  0  0
   17.9624   11.1871   36.6833 C   0  0  0  0  0  0  0  0  0  0  0  0
    9.9815   10.4881   33.5601 C   0  0  0  0  0  0  0  0  0  0  0  0
   14.7373    5.3742   30.1402 C   0  0  0  0  0  0  0  0  0  0  0  0
   13.0054    6.5623   28.8482 C   0  0  0  0  0  0  0  0  0  0  0  0
   13.1830    7.0309   31.1256 C   0  0  0  0  0  0  0  0  0  0  0  0
   14.0827    5.6311   28.9327 C   0  0  0  0  0  0  0  0  0  0  0  0
    9.4974   10.8816   32.2732 C   0  0  0  0  0  0  0  0  0  0  0  0
   10.6003    9.3278   33.9426 C   0  0  0  0  0  0  0  0  0  0  0  0
  1  8  1  0
  2 25  2  0
  2 26  1  0
  3 15  1  0
  3 16  2  0
  3 21  1  0
  4 28  2  0
  5 19  2  0
  6 10  1  0
  6 11  1  0
  7 12  1  0
  7 17  1  0
  8 11  1  0
  8 29  1  0
  9 14  2  0
  9 19  1  0
  9 20  1  0
 10 18  2  0
 10 23  1  0
 12 19  1  0
 13 28  1  0
 14 16  1  0
 15 20  2  0
 17 24  1  0
 17 26  2  0
 21 22  1  0
 23 28  1  0
 23 29  2  0
 24 27  2  0
 25 27  1  0
M  END
$$$$
