
     RDKit          3D

 18 18  0  0  0  0  0  0  0  0999 V2000
   13.8792    7.6245   34.2172 N   0  0  0  0  0  0  0  0  0  0  0  0
   16.3137   10.2776   37.7013 C   0  0  0  0  0  0  0  0  0  0  0  0
   13.3515    9.6001   35.4190 O   0  0  0  0  0  0  0  0  0  0  0  0
   14.9876    9.8512   37.2958 C   0  0  0  0  0  0  0  0  0  0  0  0
   11.1344    9.5840   35.7314 C   0  0  0  0  0  0  0  0  0  0  0  0
   12.5648    7.7453   34.5896 C   0  0  0  0  0  0  0  0  0  0  0  0
    8.4108   11.4178   32.8150 O   0  0  0  0  0  0  0  0  0  0  0  0
   17.1772   10.7910   36.7321 C   0  0  0  0  0  0  0  0  0  0  0  0
   16.7675   10.8868   35.4074 C   0  0  0  0  0  0  0  0  0  0  0  0
    9.3270   11.6295   33.7792 C   0  0  0  0  0  0  0  0  0  0  0  0
    9.2894   12.4681   34.6190 O   0  0  0  0  0  0  0  0  0  0  0  0
   14.6356   10.0072   35.9520 C   0  0  0  0  0  0  0  0  0  0  0  0
   10.3387   10.5554   33.5849 C   0  0  0  0  0  0  0  0  0  0  0  0
   12.3307    8.7258   35.8766 C   0  0  0  0  0  0  0  0  0  0  0  0
   11.3993   10.6343   34.6505 C   0  0  0  0  0  0  0  0  0  0  0  0
    7.1970   12.1522   32.9927 C   0  0  0  0  0  0  0  0  0  0  0  0
   15.4543   10.4836   35.0024 C   0  0  0  0  0  0  0  0  0  0  0  0
   11.5669    7.2572   34.2577 O   0  0  0  0  0  0  0  0  0  0  0  0
  1  6  1  0
  2  4  1  0
  2  8  2  0
  3 12  1  0
  3 14  1  0
  4 12  2  0
  5 14  1  0
  5 15  1  0
  6 14  1  0
  6 18  2  0
  7 10  1  0
  7 16  1  0
  8  9  1  0
  9 17  2  0
 10 11  2  0
 10 13  1  0
 12 17  1  0
 13 15  1  0
M  END
$$$$
