
     RDKit          3D

 19 20  0  0  0  0  0  0  0  0999 V2000
   16.4467   10.8673   35.6244 C   0  0  0  0  0  0  0  0  0  0  0  0
    7.5366   11.8827   33.7395 C   0  0  0  0  0  0  0  0  0  0  0  0
   15.2684    8.7767   37.0624 C   0  0  0  0  0  0  0  0  0  0  0  0
   11.0435   10.9188   34.9992 N   0  0  0  0  0  0  0  0  0  0  0  0
   11.3451    9.6238   35.2285 C   0  0  0  0  0  0  0  0  0  0  0  0
   14.7323    9.1490   35.8321 C   0  0  0  0  0  0  0  0  0  0  0  0
    8.8682   11.0623   32.0675 C   0  0  0  0  0  0  0  0  0  0  0  0
    9.8999   10.6837   32.8190 C   0  0  0  0  0  0  0  0  0  0  0  0
   15.3226   10.1980   35.1007 C   0  0  0  0  0  0  0  0  0  0  0  0
    7.7139   11.6617   32.4666 C   0  0  0  0  0  0  0  0  0  0  0  0
   13.7355    7.9350   32.7803 N   0  0  0  0  0  0  0  0  0  0  0  0
   14.0331    7.4436   34.1506 C   0  0  0  0  0  0  0  0  0  0  0  0
   12.6250    9.3519   34.7195 N   0  0  0  0  0  0  0  0  0  0  0  0
   13.5229    8.3427   35.2925 C   0  0  0  0  0  0  0  0  0  0  0  0
   16.3944    9.4608   37.5848 C   0  0  0  0  0  0  0  0  0  0  0  0
   16.9928   10.5091   36.8499 C   0  0  0  0  0  0  0  0  0  0  0  0
   10.0003   11.1228   34.1349 C   0  0  0  0  0  0  0  0  0  0  0  0
    8.7400   11.7998   34.5513 C   0  0  0  0  0  0  0  0  0  0  0  0
   10.6691    8.7493   35.7446 O   0  0  0  0  0  0  0  0  0  0  0  0
  1  9  1  0
  1 16  2  0
  2 10  2  0
  2 18  1  0
  3  6  1  0
  3 15  2  0
  4  5  1  0
  4 17  1  0
  5 13  1  0
  5 19  2  0
  6  9  2  0
  6 14  1  0
  7  8  2  0
  7 10  1  0
  8 17  1  0
 11 12  1  0
 12 14  1  0
 13 14  1  0
 15 16  1  0
 17 18  2  0
M  END
$$$$
