
     RDKit          3D

 18 20  0  0  0  0  0  0  0  0999 V2000
   10.9476   10.6700   34.9356 C   0  0  0  0  0  0  0  0  0  0  0  0
   13.6864    8.9093   35.1468 C   0  0  0  0  0  0  0  0  0  0  0  0
   14.7825    9.7848   34.8051 C   0  0  0  0  0  0  0  0  0  0  0  0
    9.5473   12.4989   35.5761 O   0  0  0  0  0  0  0  0  0  0  0  0
   16.8731   11.1113   36.0128 C   0  0  0  0  0  0  0  0  0  0  0  0
   13.2878    8.7085   36.4769 C   0  0  0  0  0  0  0  0  0  0  0  0
    9.0732   11.2046   33.4352 C   0  0  0  0  0  0  0  0  0  0  0  0
   14.1269    9.3158   37.3565 C   0  0  0  0  0  0  0  0  0  0  0  0
   11.9044    9.1803   33.1773 N   0  0  0  0  0  0  0  0  0  0  0  0
   15.6479   10.2361   35.8993 C   0  0  0  0  0  0  0  0  0  0  0  0
   12.1849    7.0207   34.5700 O   0  0  0  0  0  0  0  0  0  0  0  0
   15.2961    9.8142   37.2362 C   0  0  0  0  0  0  0  0  0  0  0  0
   16.9075   11.0495   35.4978 O   0  0  0  0  0  0  0  0  0  0  0  0
   10.6533    9.6695   33.8113 C   0  0  0  0  0  0  0  0  0  0  0  0
   13.9808    7.7136   32.9994 O   0  0  0  0  0  0  0  0  0  0  0  0
    9.8186   11.6598   34.8388 C   0  0  0  0  0  0  0  0  0  0  0  0
   10.1396   10.5762   32.7255 C   0  0  0  0  0  0  0  0  0  0  0  0
   12.9886    8.2160   34.0772 S   0  0  0  0  0  0  0  0  0  0  0  0
  1 14  1  0
  1 16  1  0
  2  3  4  0
  2  6  4  0
  2 18  1  0
  3 10  4  0
  4 16  2  0
  5 10  1  0
  5 13  1  0
  6  8  4  0
  7 16  1  0
  7 17  1  0
  8 12  4  0
  9 14  1  0
  9 18  1  0
 10 12  4  0
 10 13  1  0
 11 18  2  0
 14 17  1  0
 15 18  2  0
M  END
$$$$
