
     RDKit          3D

 14 15  0  0  0  0  0  0  0  0999 V2000
    0.2240   -0.4226   -0.1726 C   0  0  0  0  0  0  0  0  0  0  0  0
   -0.1700   -2.7754    0.5359 N   0  0  0  0  0  0  0  0  0  0  0  0
   -3.3327   -0.1846   -0.9412 C   0  0  0  0  0  0  0  0  0  0  0  0
    2.9530   -0.9068   -0.1043 N   0  0  0  0  0  0  0  0  0  0  0  0
    1.1383    0.5983   -0.4704 C   0  0  0  0  0  0  0  0  0  0  0  0
    2.0954   -1.9183    0.1895 C   0  0  0  0  0  0  0  0  0  0  0  0
    3.4967    1.4131   -0.7595 C   0  0  0  0  0  0  0  0  0  0  0  0
   -1.2234   -0.1365   -0.2707 C   0  0  0  0  0  0  0  0  0  0  0  0
   -2.1065   -0.7994   -1.1036 C   0  0  0  0  0  0  0  0  0  0  0  0
    0.7102   -1.7040    0.1707 C   0  0  0  0  0  0  0  0  0  0  0  0
   -1.8685    0.8499    0.3910 N   0  0  0  0  0  0  0  0  0  0  0  0
   -1.2999    1.8056    1.3381 C   0  0  0  0  0  0  0  0  0  0  0  0
    2.5123    0.3389   -0.4226 C   0  0  0  0  0  0  0  0  0  0  0  0
   -3.1509    0.8287   -0.0211 C   0  0  0  0  0  0  0  0  0  0  0  0
  1  5  1  0
  1  8  1  0
  1 10  2  0
  2 10  1  0
  3  9  1  0
  3 14  2  0
  4  6  2  0
  4 13  1  0
  5 13  2  0
  6 10  1  0
  7 13  1  0
  8  9  2  0
  8 11  1  0
 11 12  1  0
 11 14  1  0
M  END
