
     RDKit          3D

 11 12  0  0  0  0  0  0  0  0999 V2000
    1.2948   -1.7707   -0.5916 N   0  0  0  0  0  0  0  0  0  0  0  0
   -1.0405    0.9631    0.3701 C   0  0  0  0  0  0  0  0  0  0  0  0
    2.4212   -0.9884   -0.5887 C   0  0  0  0  0  0  0  0  0  0  0  0
   -1.0551   -2.1772   -0.2077 N   0  0  0  0  0  0  0  0  0  0  0  0
   -0.0376    0.0688    0.0526 C   0  0  0  0  0  0  0  0  0  0  0  0
    2.3591    0.3312   -0.2403 N   0  0  0  0  0  0  0  0  0  0  0  0
    1.1558    0.8564    0.0835 C   0  0  0  0  0  0  0  0  0  0  0  0
    0.0584   -1.2854   -0.2699 C   0  0  0  0  0  0  0  0  0  0  0  0
    0.9131    2.1371    0.4152 N   0  0  0  0  0  0  0  0  0  0  0  0
   -0.4305    2.1952    0.5951 C   0  0  0  0  0  0  0  0  0  0  0  0
   -2.4518    0.7476    0.3348 N   0  0  0  0  0  0  0  0  0  0  0  0
  1  3  2  0
  1  8  1  0
  2  5  1  0
  2 10  2  0
  2 11  1  0
  3  6  1  0
  4  8  1  0
  5  7  1  0
  5  8  2  0
  6  7  1  0
  7  9  2  0
  9 10  1  0
M  END
