
     RDKit          3D

  9 10  0  0  0  0  0  0  0  0999 V2000
    1.3069   -0.3521    0.7125 C   0  0  2  0  0  0  0  0  0  0  0  0
   -0.7143    0.9803    0.4033 C   0  0  2  0  0  0  0  0  0  0  0  0
   -1.1137   -0.4780    0.5872 C   0  0  2  0  0  0  0  0  0  0  0  0
    2.5560   -0.7723    0.0695 N   0  0  0  0  0  0  0  0  0  0  0  0
    0.1561   -1.3227    0.4537 C   0  0  0  0  0  0  0  0  0  0  0  0
   -1.6011    1.0587   -0.8481 C   0  0  0  0  0  0  0  0  0  0  0  0
   -1.9986   -0.3992   -0.6586 C   0  0  0  0  0  0  0  0  0  0  0  0
    1.1842    1.2602   -1.1070 O   0  0  0  0  0  0  0  0  0  0  0  0
    0.8184    1.0213    0.2298 C   0  0  2  0  0  0  0  0  0  0  0  0
  1  4  1  6
  1  5  1  0
  1  9  1  0
  2  3  1  0
  2  6  1  6
  2  9  1  0
  3  5  1  6
  3  7  1  0
  6  7  1  0
  9  8  1  6
M  END
