
     RDKit          3D

  9 10  0  0  0  0  0  0  0  0999 V2000
    1.1639   -1.6199    0.4488 N   0  0  0  0  0  0  0  0  0  0  0  0
    0.2053    1.1425    0.9933 C   0  0  0  0  0  0  0  0  0  0  0  0
    1.5424    0.8486    0.3078 C   0  0  0  0  0  0  0  0  0  0  0  0
   -1.0132   -0.6557   -0.2741 C   0  0  2  0  0  0  0  0  0  0  0  0
   -0.9572    0.8512    0.0454 C   0  0  1  0  0  0  0  0  0  0  0  0
    1.5992   -0.5073   -0.4138 C   0  0  2  0  0  0  0  0  0  0  0  0
    0.3494   -1.2220   -0.7235 C   0  0  1  0  0  0  0  0  0  0  0  0
   -2.1536    1.2552    0.6601 O   0  0  0  0  0  0  0  0  0  0  0  0
   -1.9417   -0.8808   -1.3032 O   0  0  0  0  0  0  0  0  0  0  0  0
  1  6  1  0
  7  1  1  1
  2  3  1  0
  2  5  1  0
  6  3  1  1
  4  5  1  0
  4  7  1  0
  4  9  1  6
  5  8  1  1
  6  7  1  0
M  END
