
     RDKit          3D

  9  9  0  0  0  0  0  0  0  0999 V2000
    1.9262   -0.7211    0.4044 N   0  0  0  0  0  0  0  0  0  0  0  0
   -2.0677    0.9509   -0.5470 C   0  0  0  0  0  0  0  0  0  0  0  0
   -0.8816    0.4034    0.2793 C   0  0  0  0  0  0  0  0  0  0  0  0
    1.6646   -1.2531   -0.9421 C   0  0  0  0  0  0  0  0  0  0  0  0
    1.7217    0.7332    0.4949 C   0  0  0  0  0  0  0  0  0  0  0  0
   -1.1986    0.6278    1.7739 C   0  0  0  0  0  0  0  0  0  0  0  0
    0.3889    1.2197   -0.1143 C   0  0  0  0  0  0  0  0  0  0  0  0
    0.1556   -1.4982   -1.1870 C   0  0  0  0  0  0  0  0  0  0  0  0
   -0.7432   -1.1328    0.0122 C   0  0  0  0  0  0  0  0  0  0  0  0
  1  4  1  0
  1  5  1  0
  2  3  1  0
  3  6  1  0
  3  7  1  0
  3  9  1  0
  4  8  1  0
  5  7  1  0
  8  9  1  0
M  END
