
     RDKit          3D

  9  9  0  0  0  0  0  0  0  0999 V2000
   -5.2375   74.3045    4.4473 O   0  0  0  0  0  0  0  0  0  0  0  0
   -4.2353   75.2872    4.3426 C   0  0  0  0  0  0  0  0  0  0  0  0
   -1.7402   77.6700    6.0439 O   0  0  0  0  0  0  0  0  0  0  0  0
   -2.7462   76.6597    5.8600 C   0  0  0  0  0  0  0  0  0  0  0  0
   -3.9182   77.3530    5.9479 C   0  0  0  0  0  0  0  0  0  0  0  0
   -5.4571   76.6290    2.7876 O   0  0  0  0  0  0  0  0  0  0  0  0
   -4.8696   76.5333    3.8499 C   0  0  0  0  0  0  0  0  0  0  0  0
   -3.6194   75.5560    5.7759 C   0  0  0  0  0  0  0  0  0  0  0  0
   -4.6447   77.6128    4.5533 N   0  0  0  0  0  0  0  0  0  0  0  0
  1  2  1  0
  2  7  1  0
  2  8  1  0
  3  4  1  0
  4  5  1  0
  4  8  1  0
  5  9  1  0
  6  7  2  0
  7  9  1  0
M  END
$$$$
