
     RDKit          3D

 26 28  0  0  0  0  0  0  0  0999 V2000
   -1.6804   -3.1893   -0.1263 C   0  0  0  0  0  0  0  0  0  0  0  0
   -3.2480    0.0795    1.0267 C   0  0  0  0  0  0  0  0  0  0  0  0
    2.9534    1.1238    0.1934 N   0  0  0  0  0  0  0  0  0  0  0  0
    0.9261    3.0968    2.1873 S   0  0  0  0  0  0  0  0  0  0  0  0
    1.3047   -2.0809   -0.1121 N   0  0  0  0  0  0  0  0  0  0  0  0
   -0.0400    2.6200   -0.3421 C   0  0  0  0  0  0  0  0  0  0  0  0
    0.2136    3.3468    3.4870 O   0  0  0  0  0  0  0  0  0  0  0  0
   -0.9053    2.0274   -1.2637 C   0  0  0  0  0  0  0  0  0  0  0  0
   -2.1251    0.9663    0.5492 C   0  0  0  0  0  0  0  0  0  0  0  0
   -2.8315   -1.4000    1.0815 C   0  0  0  0  0  0  0  0  0  0  0  0
   -1.2381    1.5483    1.4716 C   0  0  0  0  0  0  0  0  0  0  0  0
   -1.9460    1.2072   -0.8224 C   0  0  0  0  0  0  0  0  0  0  0  0
    3.7346    2.2697   -0.2755 C   0  0  0  0  0  0  0  0  0  0  0  0
   -0.2048    2.3882    1.0301 C   0  0  0  0  0  0  0  0  0  0  0  0
   -2.4530   -1.9286   -0.2507 N   0  0  0  0  0  0  0  0  0  0  0  0
    2.4161    0.9587    1.4279 C   0  0  0  0  0  0  0  0  0  0  0  0
    2.6778   -0.0004   -0.5074 C   0  0  0  0  0  0  0  0  0  0  0  0
   -0.6259   -3.2880   -1.2356 C   0  0  0  0  0  0  0  0  0  0  0  0
    1.4145    4.4157    1.6566 O   0  0  0  0  0  0  0  0  0  0  0  0
    0.3286   -2.1342   -1.1617 C   0  0  0  0  0  0  0  0  0  0  0  0
    1.9211   -0.8516    0.2798 C   0  0  0  0  0  0  0  0  0  0  0  0
    3.1130   -0.2544   -1.9202 C   0  0  0  0  0  0  0  0  0  0  0  0
    0.2067   -1.1779   -1.9742 O   0  0  0  0  0  0  0  0  0  0  0  0
    1.7655   -0.2591    1.5118 C   0  0  0  0  0  0  0  0  0  0  0  0
   -3.6450   -2.1488   -1.0943 C   0  0  0  0  0  0  0  0  0  0  0  0
    2.3290    2.0213    2.4838 C   0  0  0  0  0  0  0  0  0  0  0  0
  1 15  1  0
  1 18  1  0
  2  9  1  0
  2 10  1  0
  3 13  1  0
  3 16  1  0
  3 17  1  0
  4  7  2  0
  4 14  1  0
  4 19  2  0
  4 26  1  0
  5 20  1  0
  5 21  1  0
  6  8  1  0
  6 14  2  0
  8 12  2  0
  9 11  2  0
  9 12  1  0
 10 15  1  0
 11 14  1  0
 15 25  1  0
 16 24  2  0
 16 26  1  0
 17 21  2  0
 17 22  1  0
 18 20  1  0
 20 23  2  0
 21 24  1  0
M  END
