
     RDKit          3D

 25 30  0  0  0  0  0  0  0  0999 V2000
   -1.2474   -2.0637    0.3268 C   0  0  0  0  0  0  0  0  0  0  0  0
   -0.5561    2.6663    0.0873 C   0  0  0  0  0  0  0  0  0  0  0  0
    3.8820   -0.5704   -0.3266 C   0  0  0  0  0  0  0  0  0  0  0  0
   -1.0868   -2.9821    1.1778 O   0  0  0  0  0  0  0  0  0  0  0  0
   -3.0159   -0.0803    0.8021 O   0  0  0  0  0  0  0  0  0  0  0  0
    3.1152    0.5573    0.3981 C   0  0  2  0  0  0  0  0  0  0  0  0
    1.5359    1.8908   -0.9715 N   0  0  0  0  0  0  0  0  0  0  0  0
   -3.3090   -0.7699   -0.4132 C   0  0  0  0  0  0  0  0  0  0  0  0
   -1.1601    3.6887    0.8337 C   0  0  0  0  0  0  0  0  0  0  0  0
    3.4827   -1.9614    0.2226 C   0  0  0  0  0  0  0  0  0  0  0  0
   -1.1010    1.3451    0.1290 C   0  0  0  0  0  0  0  0  0  0  0  0
    3.7233    2.7287   -0.5740 O   0  0  0  0  0  0  0  0  0  0  0  0
    1.1080   -1.1875    0.7940 C   0  0  1  0  0  0  0  0  0  0  0  0
    1.6639    0.1837    0.5651 C   0  0  2  0  0  0  0  0  0  0  0  0
    0.6295    3.0246   -0.7996 C   0  0  0  0  0  0  0  0  0  0  0  0
   -2.3068    1.1269    0.8477 C   0  0  0  0  0  0  0  0  0  0  0  0
   -2.8462    2.1550    1.6267 C   0  0  0  0  0  0  0  0  0  0  0  0
    2.8726    1.8120   -0.4274 C   0  0  0  0  0  0  0  0  0  0  0  0
   -2.4743   -2.0629   -0.5638 C   0  0  2  0  0  0  0  0  0  0  0  0
   -0.2480   -1.0369    0.2133 N   0  0  0  0  0  0  0  0  0  0  0  0
   -2.2771    3.4256    1.6219 C   0  0  0  0  0  0  0  0  0  0  0  0
   -0.3793    0.2072   -0.5934 C   0  0  2  0  0  0  0  0  0  0  0  0
   -3.3483   -3.3073   -0.3324 C   0  0  0  0  0  0  0  0  0  0  0  0
    1.9692   -2.2483    0.0674 C   0  0  0  0  0  0  0  0  0  0  0  0
    1.0760    0.5451   -0.7756 C   0  0  1  0  0  0  0  0  0  0  0  0
  1  4  2  0
  1 19  1  0
  1 20  1  0
  2  9  1  0
  2 11  2  0
  2 15  1  0
  6  3  1  6
  3 10  1  0
  5  8  1  0
  5 16  1  0
 14  6  1  6
  6 18  1  0
  7 15  1  0
  7 18  1  0
 25  7  1  1
  8 19  1  0
  9 21  2  0
 10 24  1  0
 11 16  1  0
 11 22  1  0
 12 18  2  0
 13 14  1  0
 13 20  1  0
 13 24  1  6
 14 25  1  0
 16 17  2  0
 17 21  1  0
 19 23  1  1
 22 20  1  1
 22 25  1  0
M  END
