
     RDKit          3D

 13 14  0  0  0  0  0  0  0  0999 V2000
   -1.3422   -0.6088    0.3470 C   0  0  0  0  0  0  0  0  0  0  0  0
   -3.6988   -0.7296   -0.1452 O   0  0  0  0  0  0  0  0  0  0  0  0
    0.9634   -1.0589    1.2061 C   0  0  0  0  0  0  0  0  0  0  0  0
    0.5645   -0.7978   -1.2228 C   0  0  0  0  0  0  0  0  0  0  0  0
   -2.7461   -0.1751    0.7283 C   0  0  2  0  0  0  0  0  0  0  0  0
   -2.8693    1.3528    0.7949 C   0  0  0  0  0  0  0  0  0  0  0  0
    1.4412   -0.7611   -0.0140 C   0  0  0  0  0  0  0  0  0  0  0  0
   -0.8190   -0.3101   -0.8694 C   0  0  0  0  0  0  0  0  0  0  0  0
    2.9722    1.1538    0.6003 C   0  0  0  0  0  0  0  0  0  0  0  0
    2.7129   -0.0347   -0.3302 C   0  0  2  0  0  0  0  0  0  0  0  0
   -0.5012   -1.4090    1.3403 C   0  0  0  0  0  0  0  0  0  0  0  0
    2.3904    0.4479   -1.7126 C   0  0  0  0  0  0  0  0  0  0  0  0
    1.2420    0.0704   -2.1476 N   0  0  0  0  0  0  0  0  0  0  0  0
  1  5  1  0
  1  8  2  0
  1 11  1  0
  2  5  1  0
  3  7  2  0
  3 11  1  0
  4  7  1  0
  4  8  1  0
  4 13  1  0
  5  6  1  6
  7 10  1  0
 10  9  1  1
 10 12  1  0
 12 13  2  0
M  END
