
     RDKit          3D

 13 14  0  0  0  0  0  0  0  0999 V2000
    2.3924   -1.0781    0.1044 C   0  0  0  0  0  0  0  0  0  0  0  0
    1.1289   -1.8875    0.1826 C   0  0  0  0  0  0  0  0  0  0  0  0
   -1.3518    1.0992   -0.6148 C   0  0  0  0  0  0  0  0  0  0  0  0
   -2.5115   -0.8416    0.4724 C   0  0  0  0  0  0  0  0  0  0  0  0
   -1.2468   -1.5745    0.4771 N   0  0  0  0  0  0  0  0  0  0  0  0
   -2.5485    0.1447   -0.6948 C   0  0  0  0  0  0  0  0  0  0  0  0
   -0.1082   -1.0374    0.1471 C   0  0  0  0  0  0  0  0  0  0  0  0
    3.6538    0.8417   -0.3619 O   0  0  0  0  0  0  0  0  0  0  0  0
   -0.0500    0.3531   -0.3781 C   0  0  0  0  0  0  0  0  0  0  0  0
    1.3032    3.4104   -1.3813 N   0  0  0  0  0  0  0  0  0  0  0  0
    1.1517    0.9442   -0.5593 C   0  0  0  0  0  0  0  0  0  0  0  0
    1.2361    2.3143   -1.0160 C   0  0  0  0  0  0  0  0  0  0  0  0
    2.4131    0.2079   -0.2657 C   0  0  0  0  0  0  0  0  0  0  0  0
  1  2  1  0
  1 13  2  0
  2  7  1  0
  3  6  1  0
  3  9  1  0
  4  5  1  0
  4  6  1  0
  5  7  2  0
  7  9  1  0
  8 13  1  0
  9 11  2  0
 10 12  3  0
 11 12  1  0
 11 13  1  0
M  END
