
     RDKit          3D

 20 20  0  0  0  0  0  0  0  0999 V2000
  -10.2087  -48.0152  -18.3976 O   0  0  0  0  0  0  0  0  0  0  0  0
   -6.5414  -53.8038  -18.6326 C   0  0  0  0  0  0  0  0  0  0  0  0
   -8.9084  -48.4840  -19.2589 P   0  0  0  0  0  0  0  0  0  0  0  0
   -7.9490  -50.4101  -17.4290 P   0  0  1  0  0  0  0  0  0  0  0  0
   -7.4835  -53.5998  -17.6745 C   0  0  0  0  0  0  0  0  0  0  0  0
   -6.0388  -56.0453  -17.7885 C   0  0  0  0  0  0  0  0  0  0  0  0
   -7.6793  -54.5616  -16.6881 C   0  0  0  0  0  0  0  0  0  0  0  0
   -8.4183  -49.9123  -18.8360 O   0  0  0  0  0  0  0  0  0  0  0  0
   -7.2910  -56.7642  -15.8149 O   0  0  0  0  0  0  0  0  0  0  0  0
   -7.0327  -55.7745  -16.7780 C   0  0  0  0  0  0  0  0  0  0  0  0
   -9.2747  -48.6297  -20.7363 O   0  0  0  0  0  0  0  0  0  0  0  0
   -8.6321  -54.2802  -15.4659 C   0  0  0  0  0  0  0  0  0  0  0  0
   -5.8837  -55.0228  -18.6977 C   0  0  0  0  0  0  0  0  0  0  0  0
   -8.2022  -52.1363  -17.5043 C   0  0  0  0  0  0  0  0  0  0  0  0
   -6.3784  -50.1842  -17.6803 O   0  0  0  0  0  0  0  0  0  0  0  0
   -7.7155  -47.3945  -19.0541 O   0  0  0  0  0  0  0  0  0  0  0  0
   -5.6692  -58.4339  -18.6032 N   0  0  0  0  0  0  0  0  0  0  0  0
   -5.2324  -57.3115  -17.8806 C   0  0  0  0  0  0  0  0  0  0  0  0
   -8.5243  -49.0657  -16.8347 O   0  0  0  0  0  0  0  0  0  0  0  0
   -4.1478  -57.3973  -17.3428 O   0  0  0  0  0  0  0  0  0  0  0  0
  1  3  2  0
  2  5  1  0
  2 13  2  0
  3  8  1  0
  3 11  1  0
  3 16  1  0
  4  8  1  0
  4 14  1  0
  4 15  2  0
  4 19  1  1
  5  7  2  0
  5 14  1  0
  6 10  2  0
  6 13  1  0
  6 18  1  0
  7 10  1  0
  7 12  1  0
  9 10  1  0
 17 18  1  0
 18 20  2  0
M  END
