
     RDKit          3D

 29 32  0  0  0  0  0  0  0  0999 V2000
    9.9787    8.6966   33.9867 C   0  0  0  0  0  0  0  0  0  0  0  0
    9.5428   14.1312   35.5504 C   0  0  0  0  0  0  0  0  0  0  0  0
   11.3380   15.6095   36.3729 N   0  0  0  0  0  0  0  0  0  0  0  0
   11.7419   15.3023   37.6771 C   0  0  0  0  0  0  0  0  0  0  0  0
   12.4384   15.8942   35.5567 C   0  0  0  0  0  0  0  0  0  0  0  0
   15.8433   15.3649   35.2896 C   0  0  0  0  0  0  0  0  0  0  0  0
   16.8314   16.5132   33.2692 C   0  0  0  0  0  0  0  0  0  0  0  0
   17.7426   15.3818   33.0585 N   0  0  0  0  0  0  0  0  0  0  0  0
   12.4061   16.1414   34.3590 O   0  0  0  0  0  0  0  0  0  0  0  0
    8.7385   11.4998   34.9197 C   0  0  0  0  0  0  0  0  0  0  0  0
   13.7171   15.8092   36.4480 C   0  0  1  0  0  0  0  0  0  0  0  0
   10.1368   13.4302   34.4911 C   0  0  0  0  0  0  0  0  0  0  0  0
   16.8435   14.2265   35.0480 C   0  0  0  0  0  0  0  0  0  0  0  0
    8.1412   12.1957   35.9732 C   0  0  0  0  0  0  0  0  0  0  0  0
    8.7270    9.4753   33.6209 C   0  0  0  0  0  0  0  0  0  0  0  0
   13.1323   15.3944   37.7714 C   0  0  0  0  0  0  0  0  0  0  0  0
    8.2575   10.2347   34.7335 O   0  0  0  0  0  0  0  0  0  0  0  0
    9.9797   15.5396   35.8824 C   0  0  0  0  0  0  0  0  0  0  0  0
   13.7918   14.4322   41.5703 Cl  0  0  0  0  0  0  0  0  0  0  0  0
    9.7406   12.1239   34.1804 C   0  0  0  0  0  0  0  0  0  0  0  0
   15.5416   16.0679   33.9616 C   0  0  0  0  0  0  0  0  0  0  0  0
   13.0192   14.7686   40.0691 C   0  0  0  0  0  0  0  0  0  0  0  0
   14.6587   14.7987   35.9482 N   0  0  0  0  0  0  0  0  0  0  0  0
   10.9689   14.9459   38.7677 C   0  0  0  0  0  0  0  0  0  0  0  0
   11.6211   14.6769   39.9764 C   0  0  0  0  0  0  0  0  0  0  0  0
   13.7898   15.1308   38.9647 C   0  0  0  0  0  0  0  0  0  0  0  0
    8.5338   13.4998   36.2865 C   0  0  0  0  0  0  0  0  0  0  0  0
   18.9482   15.8172   32.3536 C   0  0  0  0  0  0  0  0  0  0  0  0
   18.0929   14.7360   34.3293 C   0  0  0  0  0  0  0  0  0  0  0  0
  1 15  1  0
  2 12  1  0
  2 18  1  0
  2 27  2  0
  3  4  1  0
  3  5  1  0
  3 18  1  0
  4 16  2  0
  4 24  1  0
  5  9  2  0
  5 11  1  0
  6 13  1  0
  6 21  1  0
  6 23  1  0
  7  8  1  0
  7 21  1  0
  8 28  1  0
  8 29  1  0
 10 14  2  0
 10 17  1  0
 10 20  1  0
 11 16  1  0
 11 23  1  6
 12 20  2  0
 13 29  1  0
 14 27  1  0
 15 17  1  0
 16 26  1  0
 19 22  1  0
 22 25  1  0
 22 26  2  0
 24 25  2  0
M  END
$$$$
