
     RDKit          3D

 15 16  0  0  0  0  0  0  0  0999 V2000
   74.7439   56.5006   40.1211 C   0  0  0  0  0  0  0  0  0  0  0  0
   70.4836   50.7856   44.8910 C   0  0  0  0  0  0  0  0  0  0  0  0
   70.6805   54.5050   45.6689 C   0  0  0  0  0  0  0  0  0  0  0  0
   73.1015   53.6513   41.5690 O   0  0  0  0  0  0  0  0  0  0  0  0
   73.9732   55.5388   40.9548 C   0  0  0  0  0  0  0  0  0  0  0  0
   72.7441   54.5682   42.5154 C   0  0  0  0  0  0  0  0  0  0  0  0
   69.5858   52.7357   46.8883 N   0  0  0  0  0  0  0  0  0  0  0  0
   73.2794   55.7859   42.1615 C   0  0  0  0  0  0  0  0  0  0  0  0
   73.8825   57.1642   39.0575 C   0  0  0  0  0  0  0  0  0  0  0  0
   73.8711   54.2557   40.5914 N   0  0  0  0  0  0  0  0  0  0  0  0
   70.7835   52.2574   44.8043 C   0  0  0  0  0  0  0  0  0  0  0  0
   71.4715   54.9636   44.6098 C   0  0  0  0  0  0  0  0  0  0  0  0
   70.2841   53.1663   45.7509 C   0  0  0  0  0  0  0  0  0  0  0  0
   71.9225   54.0841   43.6203 C   0  0  0  0  0  0  0  0  0  0  0  0
   71.5745   52.7300   43.7379 C   0  0  0  0  0  0  0  0  0  0  0  0
  1  5  1  0
  1  9  1  0
  2 11  1  0
  3 12  2  0
  3 13  1  0
  4  6  1  0
  4 10  1  0
  5  8  1  0
  5 10  2  0
  6  8  2  0
  6 14  1  0
  7 13  1  0
 11 13  2  0
 11 15  1  0
 12 14  1  0
 14 15  2  0
M  END
$$$$
