
     RDKit          3D

 23 25  0  0  0  0  0  0  0  0999 V2000
   -7.0889   -0.6588    0.9986 C   0  0  0  0  0  0  0  0  0  0  0  0
    2.2745   -0.7331   -0.5570 C   0  0  0  0  0  0  0  0  0  0  0  0
   -0.1191    1.2448    1.5419 C   0  0  0  0  0  0  0  0  0  0  0  0
   -2.3912    0.4028    1.3990 C   0  0  0  0  0  0  0  0  0  0  0  0
   -5.9657   -0.2998    1.6763 N   0  0  0  0  0  0  0  0  0  0  0  0
    6.4772    0.1660   -0.8650 C   0  0  0  0  0  0  0  0  0  0  0  0
   -3.7302    0.4994    1.8059 O   0  0  0  0  0  0  0  0  0  0  0  0
    4.2048    0.4485   -1.6636 C   0  0  0  0  0  0  0  0  0  0  0  0
   -1.4651    1.3172    1.9118 C   0  0  0  0  0  0  0  0  0  0  0  0
    0.3246    0.2490    0.6643 C   0  0  0  0  0  0  0  0  0  0  0  0
    6.0177   -0.7113    0.1252 C   0  0  0  0  0  0  0  0  0  0  0  0
   -1.9476   -0.6118    0.5325 C   0  0  0  0  0  0  0  0  0  0  0  0
   -0.6014   -0.6853    0.1622 C   0  0  0  0  0  0  0  0  0  0  0  0
   -4.8428    0.1284    1.0375 C   0  0  0  0  0  0  0  0  0  0  0  0
   -4.8452    0.2326   -0.3649 C   0  0  0  0  0  0  0  0  0  0  0  0
    4.6549   -1.0105    0.2198 C   0  0  0  0  0  0  0  0  0  0  0  0
    5.5677    0.7471   -1.7574 C   0  0  0  0  0  0  0  0  0  0  0  0
    1.6844    0.2202    0.3222 O   0  0  0  0  0  0  0  0  0  0  0  0
    7.8799    0.4750   -0.9609 C   0  0  0  0  0  0  0  0  0  0  0  0
   -5.9885   -0.1332   -1.0780 C   0  0  0  0  0  0  0  0  0  0  0  0
    3.7414   -0.4441   -0.6837 C   0  0  0  0  0  0  0  0  0  0  0  0
   -7.1182   -0.5856   -0.3953 C   0  0  0  0  0  0  0  0  0  0  0  0
    9.0076    0.7234   -1.0380 N   0  0  0  0  0  0  0  0  0  0  0  0
  1  5  2  0
  1 22  1  0
  2 18  1  0
  2 21  1  0
  3  9  2  0
  3 10  1  0
  4  7  1  0
  4  9  1  0
  4 12  2  0
  5 14  1  0
  6 11  1  0
  6 17  2  0
  6 19  1  0
  7 14  1  0
  8 17  1  0
  8 21  2  0
 10 13  2  0
 10 18  1  0
 11 16  2  0
 12 13  1  0
 14 15  2  0
 15 20  1  0
 16 21  1  0
 19 23  3  0
 20 22  2  0
M  END
