
     RDKit          3D

 29 33  0  0  0  0  0  0  0  0999 V2000
   -6.1382   -0.4900   -0.1250 C   0  0  0  0  0  0  0  0  0  0  0  0
    6.1776    0.1850    1.0316 C   0  0  0  0  0  0  0  0  0  0  0  0
    7.0862   -0.1083    2.0309 C   0  0  0  0  0  0  0  0  0  0  0  0
    3.1347   -2.0984    1.3428 C   0  0  0  0  0  0  0  0  0  0  0  0
    2.8475   -0.6170   -0.5269 C   0  0  0  0  0  0  0  0  0  0  0  0
   -3.6879   -0.3469    0.5663 N   0  0  0  0  0  0  0  0  0  0  0  0
    4.3837   -1.5049    1.5979 C   0  0  0  0  0  0  0  0  0  0  0  0
    0.6857   -1.3395   -1.2886 C   0  0  2  0  0  0  0  0  0  0  0  0
   -0.4502    0.4819    0.1328 C   0  0  0  0  0  0  0  0  0  0  0  0
   -5.0236    1.6454   -0.3080 C   0  0  0  0  0  0  0  0  0  0  0  0
    1.1367   -2.0766   -0.1406 O   0  0  0  0  0  0  0  0  0  0  0  0
   -3.1974   -0.9758   -0.6859 C   0  0  0  0  0  0  0  0  0  0  0  0
    7.8445    1.4615    0.8312 C   0  0  0  0  0  0  0  0  0  0  0  0
    1.8315   -0.3796   -1.5285 C   0  0  0  0  0  0  0  0  0  0  0  0
    2.3880   -1.6283    0.2674 C   0  0  0  0  0  0  0  0  0  0  0  0
   -1.7213    1.2607    0.4938 C   0  0  0  0  0  0  0  0  0  0  0  0
   -0.6565   -0.5912   -0.9691 C   0  0  2  0  0  0  0  0  0  0  0  0
   -7.2136    0.5351   -0.4560 C   0  0  0  0  0  0  0  0  0  0  0  0
    4.8666   -0.4516    0.7762 C   0  0  0  0  0  0  0  0  0  0  0  0
   -5.0106    0.3387    0.4854 C   0  0  0  0  0  0  0  0  0  0  0  0
    0.5829   -2.2871   -2.4995 C   0  0  0  0  0  0  0  0  0  0  0  0
   -2.6946    0.4285    1.3504 C   0  0  0  0  0  0  0  0  0  0  0  0
   -1.7827   -1.5843   -0.5695 C   0  0  0  0  0  0  0  0  0  0  0  0
   -6.4848    1.8588   -0.7033 C   0  0  0  0  0  0  0  0  0  0  0  0
    8.1504    0.7079    1.9078 N   0  0  0  0  0  0  0  0  0  0  0  0
    1.8963    0.4799   -2.4476 O   0  0  0  0  0  0  0  0  0  0  0  0
    6.6766    1.1602    0.3120 O   0  0  0  0  0  0  0  0  0  0  0  0
    4.0777   -0.0027   -0.3065 C   0  0  0  0  0  0  0  0  0  0  0  0
    8.7248    2.5459    0.3107 C   0  0  0  0  0  0  0  0  0  0  0  0
  1 18  1  0
  1 20  1  0
  2  3  2  0
  2 19  1  0
  2 27  1  0
  3 25  1  0
  4  7  2  0
  4 15  1  0
  5 14  1  0
  5 15  2  0
  5 28  1  0
  6 12  1  0
  6 20  1  0
  6 22  1  0
  7 19  1  0
  8 11  1  0
  8 14  1  0
  8 17  1  0
  8 21  1  6
  9 16  1  0
 17  9  1  1
 10 20  1  0
 10 24  1  0
 11 15  1  0
 12 23  1  0
 13 25  2  0
 13 27  1  0
 13 29  1  0
 14 26  2  0
 16 22  1  0
 17 23  1  0
 18 24  1  0
 19 28  2  0
M  END
