
     RDKit          3D

 23 25  0  0  0  0  0  0  0  0999 V2000
    0.5496    1.3329    1.3974 C   0  0  0  0  0  0  0  0  0  0  0  0
    0.8200   -0.6916    0.0945 C   0  0  0  0  0  0  0  0  0  0  0  0
   -1.4352    0.2181    0.4652 C   0  0  0  0  0  0  0  0  0  0  0  0
   -4.0543    0.0880    0.1232 C   0  0  0  0  0  0  0  0  0  0  0  0
   -4.6119   -0.9441   -0.6417 C   0  0  0  0  0  0  0  0  0  0  0  0
   -5.9967   -1.0125   -0.8240 C   0  0  0  0  0  0  0  0  0  0  0  0
   -6.2716    0.9870    0.5192 C   0  0  0  0  0  0  0  0  0  0  0  0
    6.4207   -0.4200    0.7878 C   0  0  0  0  0  0  0  0  0  0  0  0
    2.2047   -0.6240    0.2759 C   0  0  0  0  0  0  0  0  0  0  0  0
    1.9343    1.4008    1.5793 C   0  0  0  0  0  0  0  0  0  0  0  0
   -6.8365   -0.0560   -0.2318 C   0  0  0  0  0  0  0  0  0  0  0  0
    4.9777    0.0999   -1.0885 C   0  0  0  0  0  0  0  0  0  0  0  0
    7.4125   -0.8548   -0.0967 C   0  0  0  0  0  0  0  0  0  0  0  0
    8.4330   -1.3603   -2.5851 Cl  0  0  0  0  0  0  0  0  0  0  0  0
    4.1935    0.5107    1.2284 N   0  0  0  0  0  0  0  0  0  0  0  0
   -8.3181   -0.1063   -0.4600 C   0  0  0  0  0  0  0  0  0  0  0  0
   -2.6291    0.1588    0.3093 C   0  0  0  0  0  0  0  0  0  0  0  0
    7.1872   -0.8167   -1.4764 C   0  0  0  0  0  0  0  0  0  0  0  0
   -0.0100    0.2889    0.6512 C   0  0  0  0  0  0  0  0  0  0  0  0
    2.7749    0.4357    1.0047 C   0  0  0  0  0  0  0  0  0  0  0  0
    5.1883    0.0424    0.3016 C   0  0  0  0  0  0  0  0  0  0  0  0
   -4.8866    1.0548    0.7011 C   0  0  0  0  0  0  0  0  0  0  0  0
    5.9711   -0.3353   -1.9710 C   0  0  0  0  0  0  0  0  0  0  0  0
  1 10  2  0
  1 19  1  0
  2  9  1  0
  2 19  2  0
  3 17  3  0
  3 19  1  0
  4  5  1  0
  4 17  1  0
  4 22  2  0
  5  6  2  0
  6 11  1  0
  7 11  2  0
  7 22  1  0
  8 13  2  0
  8 21  1  0
  9 20  2  0
 10 20  1  0
 11 16  1  0
 12 21  2  0
 12 23  1  0
 13 18  1  0
 14 18  1  0
 15 20  1  0
 15 21  1  0
 18 23  2  0
M  END
