
     RDKit          3D

 34 39  0  0  0  0  0  0  0  0999 V2000
    7.1698    1.0696   -1.6170 C   0  0  0  0  0  0  0  0  0  0  0  0
    4.8809    0.6569   -0.8840 C   0  0  0  0  0  0  0  0  0  0  0  0
    0.7851   -2.8267   -0.9704 C   0  0  0  0  0  0  0  0  0  0  0  0
    9.5323    1.1483   -1.9007 F   0  0  0  0  0  0  0  0  0  0  0  0
    3.5304   -1.1978   -1.8775 C   0  0  0  0  0  0  0  0  0  0  0  0
    1.1614    0.7899    1.7196 O   0  0  0  0  0  0  0  0  0  0  0  0
    5.8827   -0.7491   -2.6005 C   0  0  0  0  0  0  0  0  0  0  0  0
   -5.6687    0.7928    1.7036 N   0  0  0  0  0  0  0  0  0  0  0  0
   -3.7625    0.4268    0.1718 C   0  0  0  0  0  0  0  0  0  0  0  0
   -0.5156   -2.8329   -0.1643 C   0  0  0  0  0  0  0  0  0  0  0  0
    6.0603    1.4127   -0.8239 C   0  0  0  0  0  0  0  0  0  0  0  0
   -1.9203    0.1321   -1.4885 C   0  0  0  0  0  0  0  0  0  0  0  0
   -2.4729   -1.1163    2.1012 C   0  0  0  0  0  0  0  0  0  0  0  0
   -5.4532    2.8766    0.6165 O   0  0  0  0  0  0  0  0  0  0  0  0
   -6.6817    0.1635    2.5366 C   0  0  0  0  0  0  0  0  0  0  0  0
    4.7945   -0.4347   -1.7797 C   0  0  0  0  0  0  0  0  0  0  0  0
    7.0611   -0.0022   -2.5210 C   0  0  0  0  0  0  0  0  0  0  0  0
   -1.8297   -0.8974    0.8692 C   0  0  0  0  0  0  0  0  0  0  0  0
   -3.7240   -0.5652    2.3714 C   0  0  0  0  0  0  0  0  0  0  0  0
    2.8514   -0.1944    0.2854 C   0  0  1  0  0  0  0  0  0  0  0  0
    8.4220    1.9092   -1.5775 C   0  0  0  0  0  0  0  0  0  0  0  0
   -0.4663   -1.5506    0.6724 C   0  0  2  0  0  0  0  0  0  0  0  0
    3.6630    1.0596   -0.0757 C   0  0  0  0  0  0  0  0  0  0  0  0
    1.4593    0.0703    0.7295 C   0  0  0  0  0  0  0  0  0  0  0  0
   -4.3737    0.2268    1.4183 C   0  0  0  0  0  0  0  0  0  0  0  0
   -7.5503    2.3058    1.6589 C   0  0  0  0  0  0  0  0  0  0  0  0
    2.6001   -1.0323   -0.9318 C   0  0  0  0  0  0  0  0  0  0  0  0
    8.3049    2.9439   -2.4865 F   0  0  0  0  0  0  0  0  0  0  0  0
    8.6147    2.4389   -0.3132 F   0  0  0  0  0  0  0  0  0  0  0  0
    1.1449   -1.3498   -1.1077 C   0  0  2  0  0  0  0  0  0  0  0  0
   -2.5052   -0.1324   -0.1248 C   0  0  0  0  0  0  0  0  0  0  0  0
    0.4904   -0.6814    0.0021 N   0  0  0  0  0  0  0  0  0  0  0  0
   -7.9597    1.0049    2.3628 C   0  0  0  0  0  0  0  0  0  0  0  0
   -6.1574    2.0434    1.2467 C   0  0  0  0  0  0  0  0  0  0  0  0
  1 11  2  0
  1 17  1  0
  1 21  1  0
  2 11  1  0
  2 16  2  0
  2 23  1  0
  3 10  1  0
 30  3  1  1
  4 21  1  0
  5 16  1  0
  5 27  2  0
  6 24  2  0
  7 16  1  0
  7 17  2  0
  8 15  1  0
  8 25  1  0
  8 34  1  0
  9 25  2  0
  9 31  1  0
 10 22  1  0
 12 31  1  0
 13 18  1  0
 13 19  2  0
 14 34  2  0
 15 33  1  0
 22 18  1  6
 18 31  2  0
 19 25  1  0
 20 23  1  6
 20 24  1  0
 20 27  1  0
 21 28  1  0
 21 29  1  0
 22 32  1  0
 24 32  1  0
 26 33  1  0
 26 34  1  0
 27 30  1  0
 30 32  1  0
M  END
