
     RDKit          3D

 22 24  0  0  0  0  0  0  0  0999 V2000
  -22.3324   36.1483    6.5739 C   0  0  0  0  0  0  0  0  0  0  0  0
  -18.3924   35.2258    5.0283 C   0  0  0  0  0  0  0  0  0  0  0  0
  -17.4243   35.6958    4.2435 N   0  0  0  0  0  0  0  0  0  0  0  0
  -24.6977   37.1634    7.4301 C   0  0  0  0  0  0  0  0  0  0  0  0
  -24.5748   36.7475    6.1398 C   0  0  0  0  0  0  0  0  0  0  0  0
  -20.0106   36.3685    6.5204 N   0  0  0  0  0  0  0  0  0  0  0  0
  -17.3068   36.9498    4.2450 C   0  0  0  0  0  0  0  0  0  0  0  0
  -14.3144   32.8333    2.5548 C   0  0  0  0  0  0  0  0  0  0  0  0
  -13.3806   33.3572    3.3178 N   0  0  0  0  0  0  0  0  0  0  0  0
  -23.6688   37.1346    8.2986 C   0  0  0  0  0  0  0  0  0  0  0  0
  -16.8744   34.6590    3.6947 C   0  0  0  0  0  0  0  0  0  0  0  0
  -14.1024   31.6601    1.9526 N   0  0  0  0  0  0  0  0  0  0  0  0
  -17.4827   33.5333    4.1535 N   0  0  0  0  0  0  0  0  0  0  0  0
  -22.4961   36.5852    7.8773 C   0  0  0  0  0  0  0  0  0  0  0  0
  -15.5078   33.3477    2.4440 N   0  0  0  0  0  0  0  0  0  0  0  0
  -23.3835   36.2421    5.6977 C   0  0  0  0  0  0  0  0  0  0  0  0
  -18.8869   36.2867    5.5466 C   0  0  0  0  0  0  0  0  0  0  0  0
  -18.2544   37.2869    5.0985 N   0  0  0  0  0  0  0  0  0  0  0  0
  -15.7727   34.6411    2.8761 C   0  0  0  0  0  0  0  0  0  0  0  0
  -18.4705   33.8966    5.0209 C   0  0  0  0  0  0  0  0  0  0  0  0
  -19.8841   37.3111    7.3871 C   0  0  0  0  0  0  0  0  0  0  0  0
  -21.1058   35.5920    6.0706 C   0  0  0  0  0  0  0  0  0  0  0  0
  1 14  4  0
  1 16  4  0
  1 22  1  0
  2  3  4  0
  2 17  4  0
  2 20  4  0
  3  7  4  0
  3 11  4  0
  4  5  4  0
  4 10  4  0
  5 16  4  0
  6 17  1  0
  6 21  1  0
  6 22  1  0
  7 18  4  0
  8  9  1  0
  8 12  2  0
  8 15  1  0
 10 14  4  0
 11 13  4  0
 11 19  1  0
 13 20  4  0
 15 19  1  0
 17 18  4  0
M  END
$$$$
