
     RDKit          3D

 17 18  0  0  0  0  0  0  0  0999 V2000
  -17.7873   33.9762    5.0867 N   0  0  0  0  0  0  0  0  0  0  0  0
  -17.7587   35.2421    4.6614 C   0  0  0  0  0  0  0  0  0  0  0  0
  -18.4336   36.3891    5.2357 N   0  0  0  0  0  0  0  0  0  0  0  0
  -20.1384   37.3669    6.5052 C   0  0  0  0  0  0  0  0  0  0  0  0
  -20.7343   35.2509    5.5613 C   0  0  0  0  0  0  0  0  0  0  0  0
  -13.9787   34.1915    2.7340 N   0  0  0  0  0  0  0  0  0  0  0  0
  -21.4789   37.4613    7.0551 C   0  0  0  0  0  0  0  0  0  0  0  0
  -22.0353   35.3470    6.0887 C   0  0  0  0  0  0  0  0  0  0  0  0
  -16.7180   35.3157    3.5948 C   0  0  0  0  0  0  0  0  0  0  0  0
  -24.8145   36.7388    6.4631 C   0  0  0  0  0  0  0  0  0  0  0  0
  -19.7937   36.2700    5.7631 C   0  0  0  0  0  0  0  0  0  0  0  0
  -16.2048   33.9774    3.5797 C   0  0  0  0  0  0  0  0  0  0  0  0
  -15.2229   33.3845    2.6212 C   0  0  0  0  0  0  0  0  0  0  0  0
  -22.4370   36.4336    6.8560 C   0  0  0  0  0  0  0  0  0  0  0  0
  -15.2052   32.5803    2.0051 O   0  0  0  0  0  0  0  0  0  0  0  0
  -23.7440   36.5165    7.3497 O   0  0  0  0  0  0  0  0  0  0  0  0
  -16.9344   33.2540    4.4167 O   0  0  0  0  0  0  0  0  0  0  0  0
  1  2  2  0
  1 17  1  0
  2  3  1  0
  2  9  1  0
  3 11  1  0
  4  7  2  0
  4 11  1  0
  5  8  1  0
  5 11  2  0
  6 13  2  0
  7 14  1  0
  8 14  2  0
  9 12  2  0
 10 16  1  0
 12 13  1  0
 12 17  1  0
 13 15  1  0
 14 16  1  0
M  END
$$$$
