
     RDKit          3D

 26 29  0  0  0  0  0  0  0  0999 V2000
  -15.4473   33.7800    2.9222 N   0  0  0  0  0  0  0  0  0  0  0  0
  -16.5014   35.9819    3.9165 O   0  0  0  0  0  0  0  0  0  0  0  0
  -19.4287   36.5999    5.9233 C   0  0  0  0  0  0  0  0  0  0  0  0
  -14.5259   32.8283    2.7713 C   0  0  0  0  0  0  0  0  0  0  0  0
  -20.2312   40.4052    8.2678 C   0  0  0  0  0  0  0  0  0  0  0  0
  -23.3379   38.0887    6.8945 C   0  0  0  0  0  0  0  0  0  0  0  0
  -20.4588   35.9096    6.1459 C   0  0  0  0  0  0  0  0  0  0  0  0
  -15.4820   36.1369    2.9540 C   0  0  0  0  0  0  0  0  0  0  0  0
  -14.8238   31.6500    3.0893 O   0  0  0  0  0  0  0  0  0  0  0  0
  -24.2512   37.2757    6.9152 C   0  0  0  0  0  0  0  0  0  0  0  0
  -21.0298   38.6672    7.1891 N   0  0  0  0  0  0  0  0  0  0  0  0
  -21.0924   39.4410    8.4390 C   0  0  0  0  0  0  0  0  0  0  0  0
  -18.1417   34.6620    5.0520 C   0  0  0  0  0  0  0  0  0  0  0  0
  -23.8880   36.0308    7.0404 N   0  0  0  0  0  0  0  0  0  0  0  0
  -22.6644   35.5006    6.8896 C   0  0  0  0  0  0  0  0  0  0  0  0
  -16.8054   34.7658    4.4742 C   0  0  0  0  0  0  0  0  0  0  0  0
  -18.2537   36.0516    5.3865 N   0  0  0  0  0  0  0  0  0  0  0  0
  -19.2069   34.2775    5.3656 C   0  0  0  0  0  0  0  0  0  0  0  0
  -20.2546   34.7948    5.8526 N   0  0  0  0  0  0  0  0  0  0  0  0
  -19.6491   40.2115    7.0780 C   0  0  0  0  0  0  0  0  0  0  0  0
  -22.0898   37.6301    6.9736 C   0  0  0  0  0  0  0  0  0  0  0  0
  -15.4416   34.9243    2.0656 C   0  0  0  0  0  0  0  0  0  0  0  0
  -21.6389   36.3688    6.8131 C   0  0  0  0  0  0  0  0  0  0  0  0
  -16.5122   33.4994    3.7991 C   0  0  0  0  0  0  0  0  0  0  0  0
  -20.1986   39.2468    6.3971 C   0  0  0  0  0  0  0  0  0  0  0  0
  -13.1800   33.0244    2.2308 C   0  0  0  0  0  0  0  0  0  0  0  0
  1  4  1  0
  1 22  1  0
  1 24  1  0
  2  8  1  0
  2 16  1  0
  3  7  1  0
  3 17  2  0
  4  9  2  0
  4 26  1  0
  5 12  2  0
  5 20  1  0
  6 10  2  0
  6 21  1  0
  7 19  2  0
  7 23  1  0
  8 22  1  0
 10 14  1  0
 11 12  1  0
 11 21  1  0
 11 25  1  0
 13 16  1  0
 13 17  1  0
 13 18  2  0
 14 15  2  0
 15 23  1  0
 16 24  1  0
 18 19  1  0
 20 25  2  0
 21 23  2  0
M  END
$$$$
