
     RDKit          3D

 28 29  0  0  0  0  0  0  0  0999 V2000
   31.1613   52.3151   83.1319 C   0  0  0  0  0  0  0  0  0  0  0  0
   28.4146   52.1040   79.1458 O   0  0  0  0  0  0  0  0  0  0  0  0
   27.0426   54.7113   83.0796 O   0  0  0  0  0  0  0  0  0  0  0  0
   30.6253   48.6646   84.6529 C   0  0  0  0  0  0  0  0  0  0  0  0
   29.6118   47.8574   85.1966 O   0  0  0  0  0  0  0  0  0  0  0  0
   33.4290   51.1796   82.6442 C   0  0  0  0  0  0  0  0  0  0  0  0
   32.1920   45.7900   81.9630 N   0  0  0  0  0  0  0  0  0  0  0  0
   30.6654   50.1193   84.9860 C   0  0  0  0  0  0  0  0  0  0  0  0
   32.8326   49.3476   84.8637 O   0  0  0  0  0  0  0  0  0  0  0  0
   27.7693   53.5891   81.0561 O   0  0  0  0  0  0  0  0  0  0  0  0
   29.6070   54.2457   79.4924 O   0  0  0  0  0  0  0  0  0  0  0  0
   28.9530   53.1165   80.1389 P   0  0  0  0  0  0  0  0  0  0  0  0
   27.5573   55.0364   81.6384 P   0  0  0  0  0  0  0  0  0  0  0  0
   32.5037   47.4272   83.6511 C   0  0  0  0  0  0  0  0  0  0  0  0
   32.9722   44.2046   80.2995 C   0  0  0  0  0  0  0  0  0  0  0  0
   31.0035   52.8505   81.7265 C   0  0  0  0  0  0  0  0  0  0  0  0
   33.7098   47.7048   83.0833 C   0  0  0  0  0  0  0  0  0  0  0  0
   33.3760   46.1517   81.4861 C   0  0  0  0  0  0  0  0  0  0  0  0
   31.7771   46.4537   83.0558 C   0  0  0  0  0  0  0  0  0  0  0  0
   26.4534   55.7495   80.9450 O   0  0  0  0  0  0  0  0  0  0  0  0
   32.0157   51.0295   83.1641 C   0  0  0  0  0  0  0  0  0  0  0  0
   30.5962   50.3049   86.4143 O   0  0  0  0  0  0  0  0  0  0  0  0
   32.0222   50.4813   84.5812 C   0  0  0  0  0  0  0  0  0  0  0  0
   34.1517   47.0822   82.0165 N   0  0  0  0  0  0  0  0  0  0  0  0
   32.0291   48.1917   84.8233 C   0  0  0  0  0  0  0  0  0  0  0  0
   28.8868   55.7785   81.6788 O   0  0  0  0  0  0  0  0  0  0  0  0
   33.7689   45.4378   80.3532 N   0  0  0  0  0  0  0  0  0  0  0  0
   29.8646   52.2712   81.1191 O   0  0  0  0  0  0  0  0  0  0  0  0
  1 16  1  0
  1 21  1  0
  2 12  1  0
  3 13  1  0
  4  5  1  0
  4  8  1  0
  4 25  1  0
  6 21  1  0
  7 18  2  0
  7 19  1  0
  8 22  1  0
  8 23  1  0
  9 23  1  0
  9 25  1  0
 10 12  1  0
 10 13  1  0
 11 12  2  0
 12 28  1  0
 13 20  2  0
 13 26  1  0
 14 17  1  0
 14 19  2  0
 14 25  1  0
 15 27  1  0
 16 28  1  0
 17 24  2  0
 18 24  1  0
 18 27  1  0
 21 23  1  0
M  END
$$$$
