
     RDKit          3D

 25 25  0  0  0  0  0  0  0  0999 V2000
   30.9281   52.8524   82.0839 C   0  0  0  0  0  0  0  0  0  0  0  0
   27.4542   55.0674   81.8280 P   0  0  0  0  0  0  0  0  0  0  0  0
   28.8443   52.3723   79.0907 O   0  0  0  0  0  0  0  0  0  0  0  0
   29.5790   52.6123   81.7521 O   0  0  0  0  0  0  0  0  0  0  0  0
   34.2378   48.0981   83.3950 N   0  0  0  0  0  0  0  0  0  0  0  0
   27.9730   56.4848   81.2497 O   0  0  0  0  0  0  0  0  0  0  0  0
   35.3427   46.9165   81.8270 N   0  0  0  0  0  0  0  0  0  0  0  0
   27.5961   53.8489   80.8160 O   0  0  0  0  0  0  0  0  0  0  0  0
   33.1062   46.3034   82.0729 N   0  0  0  0  0  0  0  0  0  0  0  0
   29.0239   53.2549   80.3333 P   0  0  0  0  0  0  0  0  0  0  0  0
   28.0769   54.8657   83.3093 O   0  0  0  0  0  0  0  0  0  0  0  0
   32.0134   46.4850   82.8357 C   0  0  0  0  0  0  0  0  0  0  0  0
   25.9967   55.2682   82.0819 O   0  0  0  0  0  0  0  0  0  0  0  0
   31.9703   47.4113   83.8705 C   0  0  0  0  0  0  0  0  0  0  0  0
   33.0984   51.7751   82.8005 C   0  0  0  0  0  0  0  0  0  0  0  0
   33.0580   48.2803   84.1058 C   0  0  0  0  0  0  0  0  0  0  0  0
   31.7355   50.2142   85.1661 C   0  0  0  0  0  0  0  0  0  0  0  0
   34.1955   47.1004   82.4285 C   0  0  0  0  0  0  0  0  0  0  0  0
   31.6649   51.9781   83.0059 C   0  0  0  0  0  0  0  0  0  0  0  0
   30.9193   51.2012   84.2911 S   0  0  0  0  0  0  0  0  0  0  0  0
   29.9716   54.6121   79.9809 O   0  0  0  0  0  0  0  0  0  0  0  0
   30.9873   45.7269   82.6343 N   0  0  0  0  0  0  0  0  0  0  0  0
   33.0575   49.3491   85.0991 C   0  0  0  0  0  0  0  0  0  0  0  0
   33.2219   45.2121   81.0984 C   0  0  0  0  0  0  0  0  0  0  0  0
   30.8689   47.4271   84.7395 N   0  0  0  0  0  0  0  0  0  0  0  0
  1  4  1  0
  1 19  1  0
  2  6  1  0
  2  8  1  0
  2 11  2  0
  2 13  1  0
  3 10  1  0
  4 10  1  0
  5 16  4  0
  5 18  4  0
  7 18  1  0
  8 10  1  0
  9 12  4  0
  9 18  4  0
  9 24  1  0
 10 21  2  0
 12 14  4  0
 12 22  1  0
 14 16  4  0
 14 25  1  0
 15 19  1  0
 16 23  1  0
 17 20  1  0
 17 23  1  0
 19 20  1  0
M  END
$$$$
