
     RDKit          3D

 28 29  0  0  0  0  0  0  0  0999 V2000
   33.6071   48.0204   84.3044 C   0  0  0  0  0  0  0  0  0  0  0  0
   32.8410   50.2114   83.6590 C   0  0  0  0  0  0  0  0  0  0  0  0
   32.8338   49.0668   84.3715 N   0  0  0  0  0  0  0  0  0  0  0  0
   30.7329   52.1302   82.2335 C   0  0  0  0  0  0  0  0  0  0  0  0
   28.4987   55.9772   82.8931 O   0  0  0  0  0  0  0  0  0  0  0  0
   28.7786   53.7175   79.9515 P   0  0  0  0  0  0  0  0  0  0  0  0
   30.2484   53.4048   80.3418 O   0  0  0  0  0  0  0  0  0  0  0  0
   30.0750   50.6869   85.8426 C   0  0  0  0  0  0  0  0  0  0  0  0
   30.9251   53.4443   81.6062 C   0  0  0  0  0  0  0  0  0  0  0  0
   31.2348   50.1377   85.0962 C   0  0  0  0  0  0  0  0  0  0  0  0
   32.0106   45.6380   81.9660 N   0  0  0  0  0  0  0  0  0  0  0  0
   33.8128   50.5688   82.6116 C   0  0  0  0  0  0  0  0  0  0  0  0
   28.0458   53.8959   81.3783 O   0  0  0  0  0  0  0  0  0  0  0  0
   28.8826   55.0169   79.2125 O   0  0  0  0  0  0  0  0  0  0  0  0
   30.9983   46.6774   83.8321 N   0  0  0  0  0  0  0  0  0  0  0  0
   32.0880   46.4711   82.9877 C   0  0  0  0  0  0  0  0  0  0  0  0
   26.5717   55.9435   81.1945 O   0  0  0  0  0  0  0  0  0  0  0  0
   31.8636   49.0054   85.3031 N   0  0  0  0  0  0  0  0  0  0  0  0
   26.5216   54.4130   83.2003 O   0  0  0  0  0  0  0  0  0  0  0  0
   33.0078   44.5051   80.1351 C   0  0  0  0  0  0  0  0  0  0  0  0
   31.7935   50.9359   84.0937 C   0  0  0  0  0  0  0  0  0  0  0  0
   27.4143   55.1637   82.1777 P   0  0  0  0  0  0  0  0  0  0  0  0
   34.0926   46.0606   81.4083 N   0  0  0  0  0  0  0  0  0  0  0  0
   33.2956   47.0556   83.1400 C   0  0  0  0  0  0  0  0  0  0  0  0
   34.3378   46.8801   82.2995 C   0  0  0  0  0  0  0  0  0  0  0  0
   31.2968   52.2456   83.6198 C   0  0  0  0  0  0  0  0  0  0  0  0
   33.0432   45.5015   81.2487 C   0  0  0  0  0  0  0  0  0  0  0  0
   28.3660   52.5201   79.1576 O   0  0  0  0  0  0  0  0  0  0  0  0
  1  3  1  0
  1 24  1  0
  2  3  1  0
  2 12  1  0
  2 21  2  0
  3 18  1  0
  4  9  1  0
  4 26  1  0
  5 22  1  0
  6  7  1  0
  6 13  1  0
  6 14  2  0
  6 28  1  0
  7  9  1  0
  8 10  1  0
 10 18  2  0
 10 21  1  0
 11 16  1  0
 11 27  2  0
 13 22  1  0
 15 16  1  0
 16 24  2  0
 17 22  2  0
 19 22  1  0
 20 27  1  0
 21 26  1  0
 23 25  2  0
 23 27  1  0
 24 25  1  0
M  END
$$$$
