
     RDKit          3D

 25 26  0  0  0  0  0  0  0  0999 V2000
   33.8146   47.1318   82.2260 C   0  0  0  0  0  0  0  0  0  0  0  0
   31.7785   46.2612   82.8257 N   0  0  0  0  0  0  0  0  0  0  0  0
   31.5671   48.8233   86.0548 C   0  0  0  0  0  0  0  0  0  0  0  0
   31.5869   47.2188   83.7045 C   0  0  0  0  0  0  0  0  0  0  0  0
   29.5844   52.4387   81.4364 O   0  0  0  0  0  0  0  0  0  0  0  0
   32.2844   49.3344   84.8734 C   0  0  0  0  0  0  0  0  0  0  0  0
   32.5187   48.2245   83.8925 C   0  0  0  0  0  0  0  0  0  0  0  0
   32.8549   46.1997   82.1025 C   0  0  0  0  0  0  0  0  0  0  0  0
   31.2360   52.5012   82.9502 C   0  0  0  0  0  0  0  0  0  0  0  0
   33.5495   51.3540   82.7874 C   0  0  0  0  0  0  0  0  0  0  0  0
   26.7194   55.3321   80.9865 O   0  0  0  0  0  0  0  0  0  0  0  0
   28.9282   54.5412   80.8360 O   0  0  0  0  0  0  0  0  0  0  0  0
   34.9628   47.0236   81.4372 N   0  0  0  0  0  0  0  0  0  0  0  0
   30.4029   47.1608   84.5608 C   0  0  0  0  0  0  0  0  0  0  0  0
   28.0983   54.9996   83.1775 O   0  0  0  0  0  0  0  0  0  0  0  0
   28.6827   53.0965   80.3073 P   0  0  0  0  0  0  0  0  0  0  0  0
   31.0076   52.6786   81.4832 C   0  0  0  0  0  0  0  0  0  0  0  0
   31.5200   50.4900   84.1592 C   0  0  0  0  0  0  0  0  0  0  0  0
   32.1415   51.3818   83.3740 C   0  0  0  0  0  0  0  0  0  0  0  0
   28.0642   55.4787   81.6092 P   0  0  0  0  0  0  0  0  0  0  0  0
   30.3429   48.0594   85.8223 C   0  0  0  0  0  0  0  0  0  0  0  0
   27.1668   52.5538   80.4506 O   0  0  0  0  0  0  0  0  0  0  0  0
   33.0720   45.0738   81.0835 C   0  0  0  0  0  0  0  0  0  0  0  0
   33.6562   48.1514   83.1494 C   0  0  0  0  0  0  0  0  0  0  0  0
   29.1670   53.0388   78.9317 O   0  0  0  0  0  0  0  0  0  0  0  0
  1  8  1  0
  1 13  1  0
  1 24  2  0
  2  4  1  0
  2  8  2  0
  3  6  1  0
  3 21  1  0
  4  7  2  0
  4 14  1  0
  5 16  1  0
  5 17  1  0
  6  7  1  0
  6 18  1  0
  7 24  1  0
  8 23  1  0
  9 17  1  0
  9 19  1  0
 10 19  1  0
 11 20  1  0
 12 16  1  0
 12 20  1  0
 14 21  1  0
 15 20  2  0
 16 22  1  0
 16 25  2  0
 18 19  1  0
M  END
$$$$
