
     RDKit          3D

 26 26  0  0  0  0  0  0  0  0999 V2000
   26.6211   54.9121   82.1068 O   0  0  0  0  0  0  0  0  0  0  0  0
   30.8479   50.6288   84.7543 O   0  0  0  0  0  0  0  0  0  0  0  0
   31.6026   46.9533   83.7323 C   0  0  0  0  0  0  0  0  0  0  0  0
   32.9599   49.8704   84.4084 N   0  0  0  0  0  0  0  0  0  0  0  0
   27.2876   52.3186   80.6803 O   0  0  0  0  0  0  0  0  0  0  0  0
   30.5181   47.0886   84.4608 N   0  0  0  0  0  0  0  0  0  0  0  0
   28.6262   52.8487   80.3465 P   0  0  0  0  0  0  0  0  0  0  0  0
   31.7099   46.1394   82.7262 N   0  0  0  0  0  0  0  0  0  0  0  0
   33.8166   47.6962   83.3203 N   0  0  0  0  0  0  0  0  0  0  0  0
   31.4575   52.7351   82.7281 C   0  0  0  0  0  0  0  0  0  0  0  0
   35.0526   46.8135   81.5638 N   0  0  0  0  0  0  0  0  0  0  0  0
   28.7558   54.2324   81.0506 O   0  0  0  0  0  0  0  0  0  0  0  0
   28.0396   55.1604   82.0430 P   0  0  0  0  0  0  0  0  0  0  0  0
   33.4449   51.3194   82.4275 C   0  0  0  0  0  0  0  0  0  0  0  0
   29.7142   52.1421   81.2452 O   0  0  0  0  0  0  0  0  0  0  0  0
   32.6763   48.6208   85.0704 C   0  0  0  0  0  0  0  0  0  0  0  0
   33.8744   46.8411   82.3173 C   0  0  0  0  0  0  0  0  0  0  0  0
   31.8784   50.7500   84.1171 C   0  0  0  0  0  0  0  0  0  0  0  0
   28.4527   54.8707   83.3119 O   0  0  0  0  0  0  0  0  0  0  0  0
   32.2282   51.5744   83.1047 N   0  0  0  0  0  0  0  0  0  0  0  0
   32.7002   47.7414   84.0404 C   0  0  0  0  0  0  0  0  0  0  0  0
   32.8152   46.0371   82.0030 C   0  0  0  0  0  0  0  0  0  0  0  0
   33.0264   45.1603   80.8527 C   0  0  0  0  0  0  0  0  0  0  0  0
   30.9513   52.8015   81.3226 C   0  0  0  0  0  0  0  0  0  0  0  0
   29.0358   52.9093   78.9793 O   0  0  0  0  0  0  0  0  0  0  0  0
   28.0144   56.4846   81.7130 O   0  0  0  0  0  0  0  0  0  0  0  0
  1 13  1  0
  2 18  2  0
  3  6  1  0
  3  8  1  0
  3 21  2  0
  4 16  1  0
  4 18  1  0
  5  7  1  0
  7 12  1  0
  7 15  1  0
  7 25  2  0
  8 22  2  0
  9 17  2  0
  9 21  1  0
 10 20  1  0
 10 24  1  0
 11 17  1  0
 12 13  1  0
 13 19  2  0
 13 26  1  0
 14 20  1  0
 15 24  1  0
 16 21  1  0
 17 22  1  0
 18 20  1  0
 22 23  1  0
M  END
$$$$
