
     RDKit          3D

 26 27  0  0  0  0  0  0  0  0999 V2000
   27.3072   55.9870   80.6991 O   0  0  0  0  0  0  0  0  0  0  0  0
   33.7669   47.8221   82.4071 C   0  0  0  0  0  0  0  0  0  0  0  0
   31.8440   46.8020   83.2652 C   0  0  0  0  0  0  0  0  0  0  0  0
   28.8689   52.7379   80.6038 P   0  0  0  0  0  0  0  0  0  0  0  0
   27.4536   52.2969   81.0659 O   0  0  0  0  0  0  0  0  0  0  0  0
   33.9099   46.8514   81.4983 N   0  0  0  0  0  0  0  0  0  0  0  0
   33.0935   44.7807   80.5422 C   0  0  0  0  0  0  0  0  0  0  0  0
   32.9304   50.2347   83.5388 N   0  0  0  0  0  0  0  0  0  0  0  0
   30.8006   46.7484   84.2166 N   0  0  0  0  0  0  0  0  0  0  0  0
   31.1433   49.2914   84.5371 C   0  0  0  0  0  0  0  0  0  0  0  0
   31.9424   51.1506   83.3400 C   0  0  0  0  0  0  0  0  0  0  0  0
   28.8674   56.1843   82.4835 O   0  0  0  0  0  0  0  0  0  0  0  0
   34.7169   48.8044   82.3867 N   0  0  0  0  0  0  0  0  0  0  0  0
   31.9670   45.8440   82.3914 N   0  0  0  0  0  0  0  0  0  0  0  0
   30.6798   51.0073   84.1928 S   0  0  0  0  0  0  0  0  0  0  0  0
   27.0242   54.5314   82.5686 O   0  0  0  0  0  0  0  0  0  0  0  0
   30.0432   52.0682   81.4953 O   0  0  0  0  0  0  0  0  0  0  0  0
   29.2242   52.4086   79.2300 O   0  0  0  0  0  0  0  0  0  0  0  0
   32.9780   45.9034   81.5403 C   0  0  0  0  0  0  0  0  0  0  0  0
   32.5905   49.0518   84.2257 C   0  0  0  0  0  0  0  0  0  0  0  0
   28.9326   54.2761   80.9843 O   0  0  0  0  0  0  0  0  0  0  0  0
   32.0468   52.2100   82.5057 C   0  0  0  0  0  0  0  0  0  0  0  0
   27.9506   55.2519   81.7963 P   0  0  0  0  0  0  0  0  0  0  0  0
   31.1117   52.9147   81.9625 C   0  0  0  0  0  0  0  0  0  0  0  0
   30.6616   49.2856   85.9890 C   0  0  0  0  0  0  0  0  0  0  0  0
   32.7499   47.8469   83.2852 C   0  0  0  0  0  0  0  0  0  0  0  0
  1 23  1  0
  2  6  2  0
  2 13  1  0
  2 26  1  0
  3  9  1  0
  3 14  1  0
  3 26  2  0
  4  5  1  0
  4 17  1  0
  4 18  2  0
  4 21  1  0
  6 19  1  0
  7 19  1  0
  8 11  1  0
  8 20  1  0
 10 15  1  0
 10 20  1  0
 10 25  1  0
 11 15  2  0
 11 22  1  0
 12 23  2  0
 14 19  2  0
 16 23  1  0
 17 24  1  0
 20 26  1  0
 21 23  1  0
 22 24  1  0
M  END
$$$$
