
     RDKit          3D

 30 33  0  0  0  0  0  0  0  0999 V2000
   35.6273   43.7455   17.1279 N   0  0  0  0  0  0  0  0  0  0  0  0
   38.6792   46.8614   14.9868 O   0  0  0  0  0  0  0  0  0  0  0  0
   36.8262   44.4641   17.1302 C   0  0  0  0  0  0  0  0  0  0  0  0
   35.4155   42.8396   18.0752 C   0  0  0  0  0  0  0  0  0  0  0  0
   37.8849   46.5698   13.7336 C   0  0  0  0  0  0  0  0  0  0  0  0
   31.1710   43.3211   18.6092 C   0  0  0  0  0  0  0  0  0  0  0  0
   28.0438   39.4003   20.2384 C   0  0  0  0  0  0  0  0  0  0  0  0
   30.1388   38.1954   20.2087 C   0  0  0  0  0  0  0  0  0  0  0  0
   30.0161   41.6460   16.7998 C   0  0  0  0  0  0  0  0  0  0  0  0
   30.6713   39.1348   19.3173 C   0  0  0  0  0  0  0  0  0  0  0  0
   41.0800   46.0435   19.2565 C   0  0  0  0  0  0  0  0  0  0  0  0
   37.4864   43.5110   19.2993 O   0  0  0  0  0  0  0  0  0  0  0  0
   34.0330   42.0710   18.1283 C   0  0  0  0  0  0  0  0  0  0  0  0
   26.8171   39.4744   20.6350 O   0  0  0  0  0  0  0  0  0  0  0  0
   36.3832   42.4991   19.0072 C   0  0  0  0  0  0  0  0  0  0  0  0
   25.7315   39.7972   20.1103 C   0  0  0  0  0  0  0  0  0  0  0  0
   31.7236   42.0648   18.3432 N   0  0  0  0  0  0  0  0  0  0  0  0
   37.8316   44.3633   18.2561 C   0  0  0  0  0  0  0  0  0  0  0  0
   37.3815   48.0759   13.3879 C   0  0  0  0  0  0  0  0  0  0  0  0
   29.9732   40.1463   18.8939 C   0  0  0  0  0  0  0  0  0  0  0  0
   39.0712   45.1295   18.2119 C   0  0  0  0  0  0  0  0  0  0  0  0
   30.7694   41.0824   17.8719 C   0  0  0  0  0  0  0  0  0  0  0  0
   28.6792   40.2713   19.3445 C   0  0  0  0  0  0  0  0  0  0  0  0
   25.8684   39.4400   21.5608 C   0  0  0  0  0  0  0  0  0  0  0  0
   38.3523   46.0204   16.0425 C   0  0  0  0  0  0  0  0  0  0  0  0
   39.3126   45.9563   17.0840 C   0  0  0  0  0  0  0  0  0  0  0  0
   28.8097   38.2466   20.6497 C   0  0  0  0  0  0  0  0  0  0  0  0
   37.1334   45.2940   16.0553 C   0  0  0  0  0  0  0  0  0  0  0  0
   32.7663   42.6116   17.5341 C   0  0  0  0  0  0  0  0  0  0  0  0
   40.0033   45.1169   19.1949 O   0  0  0  0  0  0  0  0  0  0  0  0
  1  3  1  0
  1  4  2  0
  2  5  1  0
  2 25  1  0
  3 18  2  0
  3 28  1  0
  4 13  1  0
  4 15  1  0
  5 19  1  0
  6 17  1  0
  7 14  1  0
  7 23  1  0
  7 27  2  0
  8 10  2  0
  8 27  1  0
  9 22  1  0
 10 20  1  0
 11 30  1  0
 12 15  1  0
 12 18  1  0
 13 29  1  0
 14 16  3  0
 14 24  1  0
 16 24  1  0
 17 22  1  0
 17 29  1  0
 18 21  1  0
 20 22  1  0
 20 23  2  0
 21 26  2  0
 21 30  1  0
 25 26  1  0
 25 28  2  0
M  END
$$$$
