
     RDKit          3D

 32 36  0  0  0  0  0  0  0  0999 V2000
   -6.7154    2.2099   -0.2225 N   0  0  0  0  0  0  0  0  0  0  0  0
    8.7711   -1.4952    0.0061 C   0  0  0  0  0  0  0  0  0  0  0  0
   -6.3658    0.9259   -0.4493 C   0  0  0  0  0  0  0  0  0  0  0  0
   -0.8472    0.9065    0.7634 C   0  0  0  0  0  0  0  0  0  0  0  0
    5.0257    1.3827   -1.1656 C   0  0  0  0  0  0  0  0  0  0  0  0
   -5.8227    1.2754    1.5910 C   0  0  0  0  0  0  0  0  0  0  0  0
   -6.3738    2.4216    1.0643 C   0  0  0  0  0  0  0  0  0  0  0  0
    2.4647   -0.2003    1.8495 C   0  0  0  0  0  0  0  0  0  0  0  0
    9.6917   -0.5401   -0.2882 N   0  0  0  0  0  0  0  0  0  0  0  0
    7.0004    0.1422   -0.2348 C   0  0  0  0  0  0  0  0  0  0  0  0
    7.4121   -1.1738    0.0390 C   0  0  0  0  0  0  0  0  0  0  0  0
   -4.2720   -0.7538   -1.4198 N   0  0  0  0  0  0  0  0  0  0  0  0
    0.3831    0.1244    0.6115 N   0  0  0  0  0  0  0  0  0  0  0  0
   -5.1604   -0.0819   -2.3836 C   0  0  0  0  0  0  0  0  0  0  0  0
   -5.3714   -1.0557    0.8147 C   0  0  0  0  0  0  0  0  0  0  0  0
    3.6717    1.7158   -1.1183 C   0  0  0  0  0  0  0  0  0  0  0  0
   -6.5290    0.2612   -1.7803 C   0  0  0  0  0  0  0  0  0  0  0  0
    9.3268    0.7409   -0.5572 C   0  0  0  0  0  0  0  0  0  0  0  0
   -4.8289   -1.7249   -0.4649 C   0  0  0  0  0  0  0  0  0  0  0  0
    7.9785    1.1058   -0.5365 C   0  0  0  0  0  0  0  0  0  0  0  0
   -1.9346   -0.8606   -0.5337 N   0  0  0  0  0  0  0  0  0  0  0  0
    2.8744    1.1927   -0.1518 N   0  0  0  0  0  0  0  0  0  0  0  0
   -2.0604   -0.0219    0.6638 C   0  0  0  0  0  0  0  0  0  0  0  0
    0.5068   -0.6920   -0.6036 C   0  0  0  0  0  0  0  0  0  0  0  0
   -2.8480   -0.6964   -1.6303 C   0  0  0  0  0  0  0  0  0  0  0  0
    1.1259   -0.2306    1.7889 C   0  0  0  0  0  0  0  0  0  0  0  0
   -2.3935   -0.5043   -2.7914 O   0  0  0  0  0  0  0  0  0  0  0  0
   -0.6972   -1.6309   -0.7054 C   0  0  0  0  0  0  0  0  0  0  0  0
    3.3491    0.3288    0.7876 C   0  0  0  0  0  0  0  0  0  0  0  0
    4.7081   -0.0165    0.7812 C   0  0  0  0  0  0  0  0  0  0  0  0
    5.5606    0.5070   -0.2065 C   0  0  0  0  0  0  0  0  0  0  0  0
   -5.8010    0.3371    0.6294 N   0  0  0  0  0  0  0  0  0  0  0  0
  1  3  2  0
  1  7  1  0
  2  9  1  0
  2 11  2  0
  3 17  1  0
  3 32  1  0
  4 13  1  0
  4 23  1  0
  5 16  2  0
  5 31  1  0
  6  7  2  0
  6 32  1  0
  8 26  2  3
  8 29  1  0
  9 18  2  0
 10 11  1  0
 10 20  2  0
 10 31  1  0
 12 14  1  0
 12 19  1  0
 12 25  1  0
 13 24  1  0
 13 26  1  0
 14 17  1  0
 15 19  1  0
 15 32  1  0
 16 22  1  0
 18 20  1  0
 21 23  1  0
 21 25  1  0
 21 28  1  0
 22 29  2  0
 24 28  1  0
 25 27  2  0
 29 30  1  0
 30 31  2  0
M  END
