
     RDKit          3D

 33 37  0  0  0  0  0  0  0  0999 V2000
    7.2964    0.5237    1.3432 C   0  0  0  0  0  0  0  0  0  0  0  0
   -5.2876   -0.0500   -1.0331 N   0  0  0  0  0  0  0  0  0  0  0  0
    8.8407    1.2113    3.2783 C   0  0  0  0  0  0  0  0  0  0  0  0
   -7.5448    0.9999   -0.4527 C   0  0  0  0  0  0  0  0  0  0  0  0
   -8.3218    0.8967    0.8913 C   0  0  0  0  0  0  0  0  0  0  0  0
    5.9717    0.4982    1.0847 N   0  0  0  0  0  0  0  0  0  0  0  0
   -6.3374   -0.3158    1.0658 C   0  0  0  0  0  0  0  0  0  0  0  0
    1.2595    0.8371   -1.3517 C   0  0  0  0  0  0  0  0  0  0  0  0
    3.9852    0.0801   -0.3559 C   0  0  0  0  0  0  0  0  0  0  0  0
   -6.3243    0.1904   -0.1928 C   0  0  0  0  0  0  0  0  0  0  0  0
    4.2858   -1.0675   -2.4631 C   0  0  0  0  0  0  0  0  0  0  0  0
    9.1035    0.0475    3.9760 F   0  0  0  0  0  0  0  0  0  0  0  0
   -1.9700   -0.0356   -1.2549 C   0  0  0  0  0  0  0  0  0  0  0  0
   -4.2464   -0.8248   -0.6028 C   0  0  0  0  0  0  0  0  0  0  0  0
   -0.8718   -0.1650   -2.2390 N   0  0  0  0  0  0  0  0  0  0  0  0
    3.4330   -0.4448   -1.5378 C   0  0  0  0  0  0  0  0  0  0  0  0
    9.8457    1.4233    2.3518 F   0  0  0  0  0  0  0  0  0  0  0  0
    5.6513   -1.1521   -2.1965 C   0  0  0  0  0  0  0  0  0  0  0  0
   -7.8197   -0.3061    3.1430 C   0  0  0  0  0  0  0  0  0  0  0  0
    6.1546   -0.6366   -1.0459 N   0  0  0  0  0  0  0  0  0  0  0  0
   -7.4978    0.0640    1.7714 N   0  0  0  0  0  0  0  0  0  0  0  0
    6.2822    1.3900    3.1167 C   0  0  0  0  0  0  0  0  0  0  0  0
    7.5199    1.0866    2.5841 C   0  0  0  0  0  0  0  0  0  0  0  0
   -4.2615   -1.3414    0.7163 C   0  0  0  0  0  0  0  0  0  0  0  0
    8.8148    2.2754    4.1616 F   0  0  0  0  0  0  0  0  0  0  0  0
    5.3511    1.0244    2.1655 C   0  0  0  0  0  0  0  0  0  0  0  0
    5.3681   -0.0264   -0.1158 C   0  0  0  0  0  0  0  0  0  0  0  0
   -3.0763   -1.0697   -1.5097 C   0  0  0  0  0  0  0  0  0  0  0  0
    2.0153   -0.3403   -1.7982 N   0  0  0  0  0  0  0  0  0  0  0  0
   -5.3193   -1.0771    1.5375 N   0  0  0  0  0  0  0  0  0  0  0  0
    0.0120    1.0295   -2.2237 C   0  0  0  0  0  0  0  0  0  0  0  0
    1.3105   -1.3866   -2.5489 C   0  0  0  0  0  0  0  0  0  0  0  0
   -0.1513   -1.4587   -2.0921 C   0  0  0  0  0  0  0  0  0  0  0  0
  1  6  1  0
  1 23  2  0
  2 10  1  0
  2 14  2  0
  3 12  1  0
  3 17  1  0
  3 23  1  0
  3 25  1  0
  4  5  1  0
  4 10  1  0
  5 21  1  0
  6 26  1  0
  6 27  1  0
  7 10  2  0
  7 21  1  0
  7 30  1  0
  8 29  1  0
  8 31  1  0
  9 16  2  0
  9 27  1  0
 11 16  1  0
 11 18  2  0
 13 15  1  0
 13 28  1  0
 14 24  1  0
 14 28  1  0
 15 31  1  0
 15 33  1  0
 16 29  1  0
 18 20  1  0
 19 21  1  0
 20 27  2  0
 22 23  1  0
 22 26  2  0
 24 30  2  0
 29 32  1  0
 32 33  1  0
M  END
