
     RDKit          3D

 32 32  0  0  0  0  0  0  0  0999 V2000
   -0.4896   27.2939   46.4887 C   0  0  0  0  0  0  0  0  0  0  0  0
    6.3142   31.8346   54.1120 C   0  0  0  0  0  0  0  0  0  0  0  0
    1.5393   30.0189   47.9884 C   0  0  0  0  0  0  0  0  0  0  0  0
    6.9519   30.4917   54.1439 C   0  0  0  0  0  0  0  0  0  0  0  0
    2.8864   26.5805   53.1452 O   0  0  0  0  0  0  0  0  0  0  0  0
    2.1391   27.8350   48.7430 C   0  0  2  0  0  0  0  0  0  0  0  0
    2.8074   27.6113   47.3705 C   0  0  2  0  0  0  0  0  0  0  0  0
    7.0160   30.0738   51.2166 O   0  0  0  0  0  0  0  0  0  0  0  0
    1.0527   28.8444   48.6179 O   0  0  0  0  0  0  0  0  0  0  0  0
    5.9465   23.8554   44.3658 C   0  0  0  0  0  0  0  0  0  0  0  0
    5.0470   27.7767   45.5974 O   0  0  0  0  0  0  0  0  0  0  0  0
    3.8849   26.0693   50.5339 O   0  0  0  0  0  0  0  0  0  0  0  0
    5.0331   25.4561   45.9155 N   0  0  0  0  0  0  0  0  0  0  0  0
    3.4352   27.5803   52.3380 C   0  0  1  0  0  0  0  0  0  0  0  0
    4.6763   26.7375   46.2664 C   0  0  0  0  0  0  0  0  0  0  0  0
    6.5963   22.8850   45.3038 C   0  0  0  0  0  0  0  0  0  0  0  0
    5.2775   28.6002   53.8067 C   0  0  0  0  0  0  0  0  0  0  0  0
    6.5760   23.7491   43.0002 C   0  0  0  0  0  0  0  0  0  0  0  0
    1.7551   25.6171   46.1876 O   0  0  0  0  0  0  0  0  0  0  0  0
    4.8780   27.6996   52.6040 C   0  0  2  0  0  0  0  0  0  0  0  0
    1.6869   27.0502   46.5422 C   0  0  1  0  0  0  0  0  0  0  0  0
    6.2584   29.5045   53.3033 N   0  0  0  0  0  0  0  0  0  0  0  0
    3.9616   26.7975   47.3986 N   0  0  0  0  0  0  0  0  0  0  0  0
    7.4182   25.6365   45.4139 C   0  0  0  0  0  0  0  0  0  0  0  0
    3.0670   27.1069   50.9365 C   0  0  1  0  0  0  0  0  0  0  0  0
    6.0305   25.2838   44.8815 C   0  0  1  0  0  0  0  0  0  0  0  0
    3.0870   28.1574   49.8787 C   0  0  0  0  0  0  0  0  0  0  0  0
    4.5815   32.7668   55.5745 N   0  0  0  0  0  0  0  0  0  0  0  0
    5.7437   31.9683   55.4352 C   0  0  0  0  0  0  0  0  0  0  0  0
    5.5813   28.3818   51.5152 N   0  0  0  0  0  0  0  0  0  0  0  0
    6.3690   29.3760   51.9568 C   0  0  0  0  0  0  0  0  0  0  0  0
    0.7080   26.8912   47.1342 C   0  0  0  0  0  0  0  0  0  0  0  0
  1 32  1  0
  2  4  1  0
  2 29  1  0
  3  9  1  0
  4 22  1  0
 14  5  1  1
  6  7  1  0
  6  9  1  0
  6 27  1  1
  7 21  1  0
  7 23  1  1
  8 31  2  0
 10 16  1  0
 10 18  1  0
 10 26  1  0
 11 15  2  0
 25 12  1  6
 13 15  1  0
 13 26  1  0
 14 20  1  0
 14 25  1  0
 15 23  1  0
 20 17  1  1
 17 22  1  0
 21 19  1  1
 20 30  1  0
 21 32  1  0
 22 31  1  0
 26 24  1  1
 25 27  1  0
 28 29  1  0
 30 31  1  0
M  END
