
     RDKit          3D

 25 28  0  0  0  0  0  0  0  0999 V2000
  133.4657   53.2267   32.7705 C   0  0  0  0  0  0  0  0  0  0  0  0
  137.6187   50.8662   31.1073 C   0  0  0  0  0  0  0  0  0  0  0  0
  135.4181   52.7635   37.7855 C   0  0  0  0  0  0  0  0  0  0  0  0
  130.9160   53.0943   31.7435 C   0  0  0  0  0  0  0  0  0  0  0  0
  134.8957   53.2871   33.3305 C   0  0  1  0  0  0  0  0  0  0  0  0
  133.5537   54.0124   37.8890 O   0  0  0  0  0  0  0  0  0  0  0  0
  134.4458   53.9460   35.6321 C   0  0  0  0  0  0  0  0  0  0  0  0
  137.1514   52.9202   32.2217 C   0  0  0  0  0  0  0  0  0  0  0  0
  128.2952   53.0379   33.5431 C   0  0  0  0  0  0  0  0  0  0  0  0
  134.9529   52.7604   39.1216 C   0  0  0  0  0  0  0  0  0  0  0  0
  136.4018   50.3590   31.3920 N   0  0  0  0  0  0  0  0  0  0  0  0
  129.5853   52.8341   31.4091 N   0  0  0  0  0  0  0  0  0  0  0  0
  128.8034   53.8225   30.6966 C   0  0  0  0  0  0  0  0  0  0  0  0
  131.3631   52.3323   32.8206 C   0  0  0  0  0  0  0  0  0  0  0  0
  133.1122   54.0231   31.6686 C   0  0  0  0  0  0  0  0  0  0  0  0
  133.8165   53.5339   39.1321 C   0  0  0  0  0  0  0  0  0  0  0  0
  130.2510   51.4392   33.2836 C   0  0  0  0  0  0  0  0  0  0  0  0
  134.9754   52.8982   34.7547 N   0  0  0  0  0  0  0  0  0  0  0  0
  134.5308   53.5359   37.0621 C   0  0  0  0  0  0  0  0  0  0  0  0
  135.5626   51.1500   32.1035 C   0  0  0  0  0  0  0  0  0  0  0  0
  132.5967   52.3564   33.3586 N   0  0  0  0  0  0  0  0  0  0  0  0
  138.0371   52.1262   31.4983 C   0  0  0  0  0  0  0  0  0  0  0  0
  131.8157   53.9528   31.1487 C   0  0  0  0  0  0  0  0  0  0  0  0
  135.8711   52.4412   32.5293 C   0  0  0  0  0  0  0  0  0  0  0  0
  129.0413   52.1066   32.5806 C   0  0  1  0  0  0  0  0  0  0  0  0
  1  5  1  0
  1 15  1  0
  1 21  2  0
  2 11  1  0
  2 22  2  0
  3 10  1  0
  3 19  2  0
  4 12  1  0
  4 14  2  0
  4 23  1  0
  5 18  1  1
  5 24  1  0
  6 16  1  0
  6 19  1  0
  7 18  1  0
  7 19  1  0
  8 22  1  0
  8 24  2  0
 25  9  1  1
 10 16  2  0
 11 20  2  0
 12 13  1  0
 12 25  1  0
 14 17  1  0
 14 21  1  0
 15 23  2  0
 17 25  1  0
 20 24  1  0
M  END
$$$$
