
     RDKit          3D

  6  5  0  0  0  0  0  0  0  0999 V2000
  128.9039   50.6270   33.3295 C   0  0  0  0  0  0  0  0  0  0  0  0
  129.2942   51.1561   32.0695 O   0  0  0  0  0  0  0  0  0  0  0  0
  131.4469   52.2502   32.4937 C   0  0  0  0  0  0  0  0  0  0  0  0
  132.0604   53.5376   32.5592 O   0  0  0  0  0  0  0  0  0  0  0  0
  129.9613   52.4140   32.1782 C   0  0  0  0  0  0  0  0  0  0  0  0
  133.4562   53.4388   32.8096 C   0  0  0  0  0  0  0  0  0  0  0  0
  1  2  1  0
  2  5  1  0
  3  4  1  0
  3  5  1  0
  4  6  1  0
M  END
$$$$
