
     RDKit          3D

 30 36  0  0  0  0  0  0  0  0999 V2000
   -1.1628   23.5054  -31.4112 C   0  0  0  0  0  0  0  0  0  0  0  0
    2.9209   19.7734  -33.4638 C   0  0  0  0  0  0  0  0  0  0  0  0
    3.4046   17.7184  -32.6617 C   0  0  0  0  0  0  0  0  0  0  0  0
    3.0168   20.6345  -34.5091 C   0  0  0  0  0  0  0  0  0  0  0  0
   -1.9456   18.7873  -31.0799 N   0  0  0  0  0  0  0  0  0  0  0  0
   -3.0369   25.2074  -30.2426 C   0  0  0  0  0  0  0  0  0  0  0  0
   -2.3462   23.2852  -30.3720 C   0  0  0  0  0  0  0  0  0  0  0  0
   -2.2503   21.0712  -30.4816 N   0  0  0  0  0  0  0  0  0  0  0  0
   -1.6162   22.2310  -30.9071 C   0  0  0  0  0  0  0  0  0  0  0  0
   -0.1470   20.0721  -30.9417 C   0  0  0  0  0  0  0  0  0  0  0  0
    1.7063   21.3885  -32.2148 C   0  0  0  0  0  0  0  0  0  0  0  0
    4.1867   18.2726  -34.7371 C   0  0  0  0  0  0  0  0  0  0  0  0
    3.5093   18.6073  -33.6427 C   0  0  0  0  0  0  0  0  0  0  0  0
    2.7011   18.1192  -31.5448 C   0  0  0  0  0  0  0  0  0  0  0  0
   -0.3091   22.4573  -31.8237 C   0  0  0  0  0  0  0  0  0  0  0  0
   -2.0586   25.4254  -31.1167 C   0  0  0  0  0  0  0  0  0  0  0  0
    2.2333   20.1138  -32.3820 C   0  0  0  0  0  0  0  0  0  0  0  0
    0.6803   19.0545  -30.7775 N   0  0  0  0  0  0  0  0  0  0  0  0
    3.6719   20.3179  -35.6450 C   0  0  0  0  0  0  0  0  0  0  0  0
    0.3186   21.2930  -31.7114 C   0  0  0  0  0  0  0  0  0  0  0  0
   -1.1378   24.7429  -31.6420 C   0  0  0  0  0  0  0  0  0  0  0  0
   -3.4994   26.3847  -29.7421 C   0  0  0  0  0  0  0  0  0  0  0  0
   -3.3815   18.9121  -31.5150 C   0  0  0  0  0  0  0  0  0  0  0  0
   -1.5012   20.0021  -30.8496 C   0  0  0  0  0  0  0  0  0  0  0  0
    2.0435   19.2540  -31.2987 C   0  0  0  0  0  0  0  0  0  0  0  0
   -3.0284   24.1012  -30.0443 C   0  0  0  0  0  0  0  0  0  0  0  0
    4.2970   19.1607  -35.7526 C   0  0  0  0  0  0  0  0  0  0  0  0
   -3.6507   27.5405  -30.2390 O   0  0  0  0  0  0  0  0  0  0  0  0
    2.4821   22.4228  -32.4434 O   0  0  0  0  0  0  0  0  0  0  0  0
   -3.8256   26.2876  -28.4449 N   0  0  0  0  0  0  0  0  0  0  0  0
  1  7  1  0
  1  9  1  0
  1 15  1  0
  1 21  4  0
  2  4  4  0
  2 13  4  0
  2 17  4  0
  3 13  4  0
  3 14  4  0
  4 19  4  0
  5 23  1  0
  5 24  2  3
  6 16  4  0
  6 22  1  0
  6 26  4  0
  7  9  1  0
  7 26  4  0
  8  9  1  0
  8 24  1  0
  9 15  1  0
 10 18  2  0
 10 20  1  0
 10 24  1  0
 11 17  1  0
 11 20  1  0
 11 29  2  0
 12 13  4  0
 12 27  4  0
 14 25  4  0
 15 20  2  0
 16 21  4  0
 17 25  4  0
 18 25  1  0
 19 27  4  0
 22 28  2  0
 22 30  1  0
M  END
$$$$
