
     RDKit          3D

 31 36  0  0  0  0  0  0  0  0999 V2000
   -0.8921   21.8645  -30.3457 N   0  0  0  0  0  0  0  0  0  0  0  0
   -1.0131   22.8764  -31.2952 C   0  0  0  0  0  0  0  0  0  0  0  0
   -1.6187   25.2029  -32.1291 C   0  0  0  0  0  0  0  0  0  0  0  0
    3.4639   20.2874  -35.3275 C   0  0  0  0  0  0  0  0  0  0  0  0
   -3.6922   26.5376  -30.6619 F   0  0  0  0  0  0  0  0  0  0  0  0
   -0.1086   19.4541  -30.9644 C   0  0  0  0  0  0  0  0  0  0  0  0
    3.2815   18.4998  -33.7908 C   0  0  0  0  0  0  0  0  0  0  0  0
    1.8056   21.5779  -32.3997 N   0  0  0  0  0  0  0  0  0  0  0  0
   -1.8439   23.5954  -30.6086 C   0  0  0  0  0  0  0  0  0  0  0  0
   -1.1302   22.1651  -28.9766 C   0  0  0  0  0  0  0  0  0  0  0  0
    2.0960   18.7970  -31.6908 C   0  0  0  0  0  0  0  0  0  0  0  0
   -2.3504   20.0373  -30.9854 C   0  0  0  0  0  0  0  0  0  0  0  0
   -2.3903   18.7381  -31.0336 C   0  0  0  0  0  0  0  0  0  0  0  0
   -2.1008   24.7536  -30.9565 C   0  0  0  0  0  0  0  0  0  0  0  0
    1.5772   21.1123  -30.9260 C   0  0  0  0  0  0  0  0  0  0  0  0
   -0.8728   18.0497  -31.0618 S   0  0  0  0  0  0  0  0  0  0  0  0
    2.7594   21.1183  -34.4597 C   0  0  0  0  0  0  0  0  0  0  0  0
    1.2103   19.6478  -30.9231 N   0  0  0  0  0  0  0  0  0  0  0  0
   -2.3976   22.9022  -29.4907 C   0  0  0  0  0  0  0  0  0  0  0  0
   -1.0653   20.4959  -30.9207 C   0  0  0  0  0  0  0  0  0  0  0  0
    3.1171   18.5696  -30.8155 O   0  0  0  0  0  0  0  0  0  0  0  0
    2.6272   19.2899  -32.8692 C   0  0  0  0  0  0  0  0  0  0  0  0
    3.7217   18.9813  -34.9896 C   0  0  0  0  0  0  0  0  0  0  0  0
    2.3717   20.6358  -33.2350 C   0  0  0  0  0  0  0  0  0  0  0  0
   -2.8062   23.9363  -28.4573 C   0  0  0  0  0  0  0  0  0  0  0  0
   -2.1150   26.5973  -29.2858 F   0  0  0  0  0  0  0  0  0  0  0  0
   -2.8681   25.7173  -30.1013 C   0  0  0  0  0  0  0  0  0  0  0  0
   -0.8361   24.3802  -32.7528 C   0  0  0  0  0  0  0  0  0  0  0  0
   -0.4493   23.1344  -32.4695 C   0  0  0  0  0  0  0  0  0  0  0  0
   -3.6855   24.7722  -29.3046 C   0  0  0  0  0  0  0  0  0  0  0  0
    3.9325   17.4390  -31.3150 C   0  0  0  0  0  0  0  0  0  0  0  0
  1  2  1  0
  1 10  1  0
  1 20  1  0
  2  9  2  0
  2 29  1  0
  3 14  2  0
  3 28  1  0
  4 17  1  0
  4 23  2  0
  5 27  1  0
  6 16  1  0
  6 18  1  0
  6 20  2  0
  7 22  2  0
  7 23  1  0
  8 15  1  0
  8 24  1  0
  9 14  1  0
  9 19  1  0
 10 19  1  0
 11 18  1  0
 11 21  1  0
 11 22  1  0
 12 13  2  0
 12 20  1  0
 13 16  1  0
 14 27  1  0
 15 18  1  0
 17 24  2  0
 19 25  1  0
 21 31  1  0
 22 24  1  0
 25 30  1  0
 26 27  1  0
 27 30  1  0
 28 29  2  0
M  END
$$$$
