
     RDKit          3D

 20 22  0  0  0  0  0  0  0  0999 V2000
   -3.0741   25.9557  -29.9417 C   0  0  0  0  0  0  0  0  0  0  0  0
    2.1924   20.5794  -33.7891 C   0  0  0  0  0  0  0  0  0  0  0  0
    4.3490   19.0515  -33.1439 C   0  0  0  0  0  0  0  0  0  0  0  0
   -0.7201   20.4134  -30.4436 C   0  0  0  0  0  0  0  0  0  0  0  0
   -3.1591   25.8797  -28.6693 O   0  0  0  0  0  0  0  0  0  0  0  0
   -0.7690   24.1162  -32.1130 C   0  0  0  0  0  0  0  0  0  0  0  0
    3.2791   20.5769  -34.6248 C   0  0  0  0  0  0  0  0  0  0  0  0
    0.2416   20.7362  -31.3903 C   0  0  0  0  0  0  0  0  0  0  0  0
   -1.6184   22.5536  -30.5087 C   0  0  0  0  0  0  0  0  0  0  0  0
   -0.7554   22.8905  -31.5319 C   0  0  0  0  0  0  0  0  0  0  0  0
    4.3631   19.8107  -34.3041 C   0  0  0  0  0  0  0  0  0  0  0  0
   -3.3758   26.9598  -30.5888 O   0  0  0  0  0  0  0  0  0  0  0  0
   -2.5273   24.7563  -30.5804 C   0  0  0  0  0  0  0  0  0  0  0  0
    3.2665   19.0697  -32.3540 C   0  0  0  0  0  0  0  0  0  0  0  0
   -2.4687   23.4993  -29.9978 C   0  0  0  0  0  0  0  0  0  0  0  0
   -1.6351   21.3116  -29.9741 C   0  0  0  0  0  0  0  0  0  0  0  0
    1.1954   19.7123  -31.6781 N   0  0  0  0  0  0  0  0  0  0  0  0
    2.1845   19.8381  -32.6235 C   0  0  0  0  0  0  0  0  0  0  0  0
    0.1781   21.9882  -31.9507 C   0  0  0  0  0  0  0  0  0  0  0  0
   -1.5982   25.0988  -31.6006 C   0  0  0  0  0  0  0  0  0  0  0  0
  1  5  2  0
  1 12  1  0
  1 13  1  0
  2  7  2  0
  2 18  1  0
  3 11  2  0
  3 14  1  0
  4  8  1  0
  4 16  2  0
  6 10  2  0
  6 20  1  0
  7 11  1  0
  8 17  1  0
  8 19  2  0
  9 10  1  0
  9 15  2  0
  9 16  1  0
 10 19  1  0
 13 15  1  0
 13 20  2  0
 14 18  2  0
 17 18  1  0
M  END
$$$$
