
     RDKit          3D

 31 34  0  0  0  0  0  0  0  0999 V2000
    4.2538   19.2324  -33.4351 C   0  0  0  0  0  0  0  0  0  0  0  0
   -2.5599   25.0255  -30.4334 C   0  0  0  0  0  0  0  0  0  0  0  0
   -0.9053   23.3796  -30.1007 C   0  0  0  0  0  0  0  0  0  0  0  0
    1.6487   22.6041  -31.7442 C   0  0  0  0  0  0  0  0  0  0  0  0
   -1.3472   19.0950  -30.5204 C   0  0  0  0  0  0  0  0  0  0  0  0
    0.0155   20.7668  -31.7166 C   0  0  0  0  0  0  0  0  0  0  0  0
    2.9966   18.5198  -31.2606 N   0  0  0  0  0  0  0  0  0  0  0  0
    1.1338   19.7504  -31.5829 C   0  0  0  0  0  0  0  0  0  0  0  0
   -1.2460   20.1956  -31.2471 C   0  0  0  0  0  0  0  0  0  0  0  0
    3.0061   21.0468  -35.1247 C   0  0  0  0  0  0  0  0  0  0  0  0
    0.1532   22.3175  -31.9863 C   0  0  0  0  0  0  0  0  0  0  0  0
   -2.4444   20.7065  -31.4680 C   0  0  0  0  0  0  0  0  0  0  0  0
    2.4993   19.5993  -31.8500 C   0  0  0  0  0  0  0  0  0  0  0  0
   -0.0147   22.5864  -29.1968 C   0  0  0  0  0  0  0  0  0  0  0  0
   -1.4732   24.0305  -32.3174 C   0  0  0  0  0  0  0  0  0  0  0  0
    3.1011   19.8446  -33.0736 C   0  0  0  0  0  0  0  0  0  0  0  0
    0.9158   18.6035  -30.7479 C   0  0  0  0  0  0  0  0  0  0  0  0
   -2.3788   24.9179  -31.7865 C   0  0  0  0  0  0  0  0  0  0  0  0
   -0.7480   23.2424  -31.4611 C   0  0  0  0  0  0  0  0  0  0  0  0
    2.0621   17.9218  -30.6242 N   0  0  0  0  0  0  0  0  0  0  0  0
   -3.5250   21.1131  -31.6595 N   0  0  0  0  0  0  0  0  0  0  0  0
   -1.8191   24.2540  -29.5805 C   0  0  0  0  0  0  0  0  0  0  0  0
    2.4765   20.7290  -33.9272 C   0  0  0  0  0  0  0  0  0  0  0  0
    4.1781   20.4702  -35.4521 C   0  0  0  0  0  0  0  0  0  0  0  0
    4.7931   19.5600  -34.6440 C   0  0  0  0  0  0  0  0  0  0  0  0
   -3.5667   25.9613  -29.9681 C   0  0  0  0  0  0  0  0  0  0  0  0
   -4.5799   25.3339  -29.2723 O   0  0  0  0  0  0  0  0  0  0  0  0
   -3.5453   27.1655  -30.1401 O   0  0  0  0  0  0  0  0  0  0  0  0
    0.0305   22.4132  -33.4796 C   0  0  0  0  0  0  0  0  0  0  0  0
   -0.6514   21.3190  -28.8857 O   0  0  0  0  0  0  0  0  0  0  0  0
   -0.2578   18.2758  -30.2036 C   0  0  0  0  0  0  0  0  0  0  0  0
  1 16  1  0
  1 25  2  0
  2 18  1  0
  2 22  2  0
  2 26  1  0
  3 14  1  0
  3 19  2  0
  3 22  1  0
  4 11  1  0
  5  9  2  0
  5 31  1  0
  6  8  1  0
  6  9  1  0
  6 11  1  0
  7 13  2  0
  7 20  1  0
  8 13  2  0
  8 17  1  0
  9 12  1  0
 10 23  1  0
 10 24  2  0
 11 19  1  0
 11 29  1  0
 12 21  3  0
 13 16  1  0
 14 30  1  0
 15 18  2  0
 15 19  1  0
 16 23  2  0
 17 20  1  0
 17 31  2  0
 24 25  1  0
 26 27  2  0
 26 28  1  0
M  END
$$$$
