
     RDKit          3D

 24 26  0  0  0  0  0  0  0  0999 V2000
   -2.6592   24.9596  -30.0530 C   0  0  0  0  0  0  0  0  0  0  0  0
   -3.2956   26.2012  -29.9031 C   0  0  0  0  0  0  0  0  0  0  0  0
    2.8532   19.6364  -32.8229 C   0  0  0  0  0  0  0  0  0  0  0  0
    0.6187   21.1136  -31.0468 C   0  0  0  0  0  0  0  0  0  0  0  0
   -1.5392   20.1433  -30.8204 C   0  0  0  0  0  0  0  0  0  0  0  0
   -2.0098   22.8169  -29.2921 C   0  0  0  0  0  0  0  0  0  0  0  0
    2.4959   19.5994  -31.5291 C   0  0  0  0  0  0  0  0  0  0  0  0
   -0.6746   23.3254  -32.9060 Cl  0  0  0  0  0  0  0  0  0  0  0  0
   -2.6839   23.9926  -29.0648 C   0  0  0  0  0  0  0  0  0  0  0  0
    0.3480   18.7631  -31.3480 C   0  0  0  0  0  0  0  0  0  0  0  0
    2.3651   20.7395  -33.5204 C   0  0  0  0  0  0  0  0  0  0  0  0
   -3.8086   27.1882  -29.7677 N   0  0  0  0  0  0  0  0  0  0  0  0
   -1.3923   22.5759  -30.4827 C   0  0  0  0  0  0  0  0  0  0  0  0
    3.6550   20.0927  -35.5440 C   0  0  0  0  0  0  0  0  0  0  0  0
   -0.9883   18.9127  -31.0997 C   0  0  0  0  0  0  0  0  0  0  0  0
    1.1638   19.8610  -31.3011 C   0  0  0  0  0  0  0  0  0  0  0  0
   -2.8347   20.1870  -30.6229 F   0  0  0  0  0  0  0  0  0  0  0  0
    2.8579   18.3204  -30.9258 N   0  0  0  0  0  0  0  0  0  0  0  0
    3.8134   18.7847  -33.4899 C   0  0  0  0  0  0  0  0  0  0  0  0
   -1.9462   24.7775  -31.2847 C   0  0  0  0  0  0  0  0  0  0  0  0
    2.7649   20.9488  -34.8711 C   0  0  0  0  0  0  0  0  0  0  0  0
   -0.7507   21.2490  -30.7995 C   0  0  0  0  0  0  0  0  0  0  0  0
   -1.3783   23.5617  -31.4509 C   0  0  0  0  0  0  0  0  0  0  0  0
    4.1997   19.0119  -34.8453 C   0  0  0  0  0  0  0  0  0  0  0  0
  1  2  1  0
  1  9  1  0
  1 20  2  0
  2 12  3  0
  3  7  1  0
  3 11  2  0
  3 19  1  0
  4 16  2  0
  4 22  1  0
  5 15  1  0
  5 17  1  0
  5 22  2  0
  6  9  2  0
  6 13  1  0
  7 16  1  0
  7 18  1  0
  8 23  1  0
 10 15  2  0
 10 16  1  0
 11 21  1  0
 13 22  1  0
 13 23  2  0
 14 21  2  0
 14 24  1  0
 19 24  2  0
 20 23  1  0
M  END
$$$$
