
     RDKit          3D

 28 33  0  0  0  0  0  0  0  0999 V2000
   65.7869   -4.4928  -68.4336 C   0  0  0  0  0  0  0  0  0  0  0  0
   63.6032   -7.3195  -67.9886 C   0  0  0  0  0  0  0  0  0  0  0  0
   70.0634   -1.7394  -65.7715 C   0  0  0  0  0  0  0  0  0  0  0  0
   65.6260   -2.2731  -69.4070 C   0  0  0  0  0  0  0  0  0  0  0  0
   68.6492   -3.9064  -66.6525 C   0  0  0  0  0  0  0  0  0  0  0  0
   63.9276   -3.9146  -69.7646 N   0  0  0  0  0  0  0  0  0  0  0  0
   68.4177   -2.6192  -67.1279 C   0  0  0  0  0  0  0  0  0  0  0  0
   67.4039   -2.7662  -68.0004 N   0  0  0  0  0  0  0  0  0  0  0  0
   62.4887   -7.6209  -67.6657 O   0  0  0  0  0  0  0  0  0  0  0  0
   67.7526   -4.8091  -67.0904 N   0  0  0  0  0  0  0  0  0  0  0  0
   61.8772   -6.7621  -70.6834 C   0  0  0  0  0  0  0  0  0  0  0  0
   62.1330   -5.5378  -70.1363 C   0  0  0  0  0  0  0  0  0  0  0  0
   66.7598   -1.8395  -68.7727 C   0  0  0  0  0  0  0  0  0  0  0  0
   61.1474   -4.6363  -70.2392 N   0  0  0  0  0  0  0  0  0  0  0  0
   65.7762   -6.9311  -67.4348 C   0  0  0  0  0  0  0  0  0  0  0  0
   63.3319   -5.1691  -69.5066 C   0  0  0  0  0  0  0  0  0  0  0  0
   64.0591   -6.0738  -68.6422 C   0  0  0  0  0  0  0  0  0  0  0  0
   69.7359   -4.0802  -65.8118 C   0  0  0  0  0  0  0  0  0  0  0  0
   60.0383   -4.8526  -70.9193 C   0  0  0  0  0  0  0  0  0  0  0  0
   65.1171   -3.5800  -69.2079 C   0  0  0  0  0  0  0  0  0  0  0  0
   59.8867   -5.9711  -71.5377 C   0  0  0  0  0  0  0  0  0  0  0  0
   69.1062   -1.4980  -66.7454 C   0  0  0  0  0  0  0  0  0  0  0  0
   70.4054   -2.9897  -65.2872 C   0  0  0  0  0  0  0  0  0  0  0  0
   65.2507   -5.7434  -68.1794 C   0  0  0  0  0  0  0  0  0  0  0  0
   66.9835   -4.0498  -67.9101 C   0  0  0  0  0  0  0  0  0  0  0  0
   64.6954   -9.1731  -66.9753 C   0  0  0  0  0  0  0  0  0  0  0  0
   60.7191   -7.0142  -71.3881 C   0  0  0  0  0  0  0  0  0  0  0  0
   64.6686   -7.8500  -67.4955 N   0  0  0  0  0  0  0  0  0  0  0  0
  1 20  1  0
  1 24  2  0
  1 25  1  0
  2  9  2  0
  2 17  1  0
  2 28  1  0
  3 22  1  0
  3 23  2  0
  4 13  2  0
  4 20  1  0
  5  7  1  0
  5 10  1  0
  5 18  2  0
  6 16  1  0
  6 20  2  0
  7  8  1  0
  7 22  2  0
  8 13  1  0
  8 25  1  0
 10 25  2  0
 11 12  2  0
 11 27  1  0
 12 14  1  0
 12 16  1  0
 14 19  2  0
 15 24  1  0
 15 28  1  0
 16 17  2  0
 17 24  1  0
 18 23  1  0
 19 21  1  0
 21 27  2  0
 26 28  1  0
M  END
$$$$
