
     RDKit          3D

 19 19  0  0  0  0  0  0  0  0999 V2000
   46.5046   -9.4926   25.4672 C   0  0  0  0  0  0  0  0  0  0  0  0
   48.4693  -12.0400   23.0747 O   0  0  0  0  0  0  0  0  0  0  0  0
   48.5079  -10.4534   24.4186 C   0  0  0  0  0  0  0  0  0  0  0  0
   48.9252  -11.8480   24.0660 C   0  0  0  0  0  0  0  0  0  0  0  0
   48.4802   -9.4999   23.5608 O   0  0  0  0  0  0  0  0  0  0  0  0
   49.4500  -16.5091   23.0305 O   0  0  0  0  0  0  0  0  0  0  0  0
   48.6032  -12.3673   25.3824 C   0  0  0  0  0  0  0  0  0  0  0  0
   48.3138  -14.5320   24.4004 O   0  0  0  0  0  0  0  0  0  0  0  0
   49.8078  -16.0491   25.6009 O   0  0  0  0  0  0  0  0  0  0  0  0
   46.5070   -6.4681   26.2849 O   0  0  0  0  0  0  0  0  0  0  0  0
   48.5293  -13.8123   25.4606 C   0  0  0  0  0  0  0  0  0  0  0  0
   47.4911   -7.3409   28.4194 O   0  0  0  0  0  0  0  0  0  0  0  0
   45.1013   -8.0175   27.5998 O   0  0  0  0  0  0  0  0  0  0  0  0
   47.1724  -10.6692   24.9170 C   0  0  0  0  0  0  0  0  0  0  0  0
   48.5771  -16.1055   24.2365 P   0  0  0  0  0  0  0  0  0  0  0  0
   47.6020  -17.1792   24.7168 O   0  0  0  0  0  0  0  0  0  0  0  0
   47.1896   -8.9404   26.5666 O   0  0  0  0  0  0  0  0  0  0  0  0
   46.5825   -7.6152   27.2468 P   0  0  0  0  0  0  0  0  0  0  0  0
   47.5543  -11.5927   25.8728 O   0  0  0  0  0  0  0  0  0  0  0  0
  1 14  1  0
  1 17  1  0
  2  4  1  0
  3  4  1  0
  3  5  1  0
  3 14  1  0
  4  7  1  0
  6 15  1  0
  7 11  1  0
  7 19  1  0
  8 11  1  0
  8 15  1  0
  9 15  2  0
 10 18  1  0
 12 18  2  0
 13 18  1  0
 14 19  1  0
 15 16  1  0
 17 18  1  0
M  END
$$$$
