
     RDKit          3D

 44 50  0  0  0  0  0  0  0  0999 V2000
   12.6415   59.6298   79.8151 C   0  0  0  0  0  0  0  0  0  0  0  0
   17.4783   60.7513   78.9502 C   0  0  0  0  0  0  0  0  0  0  0  0
   18.9487   58.4171   79.0234 C   0  0  0  0  0  0  0  0  0  0  0  0
   11.0454   58.3982   78.4102 O   0  0  0  0  0  0  0  0  0  0  0  0
   20.9551   59.4948   78.8017 C   0  0  0  0  0  0  0  0  0  0  0  0
   24.7102   61.1480   76.5237 O   0  0  0  0  0  0  0  0  0  0  0  0
   22.5443   61.9166   76.3960 O   0  0  0  0  0  0  0  0  0  0  0  0
   11.5497   55.6135   81.4777 C   0  0  0  0  0  0  0  0  0  0  0  0
   19.5838   59.5475   78.9016 C   0  0  0  0  0  0  0  0  0  0  0  0
    8.6300   57.2850   82.4438 F   0  0  0  0  0  0  0  0  0  0  0  0
   12.4033   54.4661   81.8250 C   0  0  0  0  0  0  0  0  0  0  0  0
   14.9132   55.7323   84.0910 C   0  0  0  0  0  0  0  0  0  0  0  0
   17.4159   58.3469   79.0574 C   0  0  0  0  0  0  0  0  0  0  0  0
   13.3866   59.7391   81.0627 C   0  0  1  0  0  0  0  0  0  0  0  0
   15.4991   59.7144   79.1619 O   0  0  0  0  0  0  0  0  0  0  0  0
   20.8297   61.8703   78.6779 C   0  0  0  0  0  0  0  0  0  0  0  0
   11.3756   57.4516   80.3183 C   0  0  0  0  0  0  0  0  0  0  0  0
   19.7675   56.9977   79.1120 C   0  0  0  0  0  0  0  0  0  0  0  0
   13.7291   55.2501   83.6357 N   0  0  0  0  0  0  0  0  0  0  0  0
   24.2326   59.9475   78.5404 C   0  0  0  0  0  0  0  0  0  0  0  0
   23.4134   61.3384   76.9666 C   0  0  0  0  0  0  0  0  0  0  0  0
   18.8690   60.7163   78.8782 C   0  0  0  0  0  0  0  0  0  0  0  0
   12.4318   60.8069   79.0752 O   0  0  0  0  0  0  0  0  0  0  0  0
   13.6571   55.0422   82.3295 C   0  0  0  0  0  0  0  0  0  0  0  0
   10.4100   55.8799   82.1795 C   0  0  0  0  0  0  0  0  0  0  0  0
   10.2190   57.8388   80.9372 N   0  0  0  0  0  0  0  0  0  0  0  0
   13.3572   58.4979   81.7360 O   0  0  0  0  0  0  0  0  0  0  0  0
   21.4850   58.4206   78.8413 O   0  0  0  0  0  0  0  0  0  0  0  0
   14.9820   58.6295   80.0053 C   0  0  1  0  0  0  0  0  0  0  0  0
   19.5084   61.8131   78.7657 N   0  0  0  0  0  0  0  0  0  0  0  0
   16.7521   57.0308   79.2505 C   0  0  2  0  0  0  0  0  0  0  0  0
   21.6911   60.8606   78.6754 C   0  0  0  0  0  0  0  0  0  0  0  0
    9.7510   56.9974   81.8416 C   0  0  0  0  0  0  0  0  0  0  0  0
   14.5721   55.4312   81.4574 C   0  0  0  0  0  0  0  0  0  0  0  0
   16.6674   56.1702   81.3098 N   0  0  0  0  0  0  0  0  0  0  0  0
   15.1721   57.2842   79.6393 O   0  0  0  0  0  0  0  0  0  0  0  0
   12.0613   56.3344   80.5273 N   0  0  0  0  0  0  0  0  0  0  0  0
   15.7248   56.0225   83.3815 C   0  0  0  0  0  0  0  0  0  0  0  0
   12.1535   58.3240   79.3818 C   0  0  2  0  0  0  0  0  0  0  0  0
   16.7829   59.5616   79.0500 C   0  0  0  0  0  0  0  0  0  0  0  0
   15.6918   55.8725   82.0177 C   0  0  0  0  0  0  0  0  0  0  0  0
   14.4322   59.0187   81.2294 C   0  0  1  0  0  0  0  0  0  0  0  0
   17.1625   55.9428   80.1189 C   0  0  0  0  0  0  0  0  0  0  0  0
   23.2613   61.1339   78.4395 C   0  0  1  0  0  0  0  0  0  0  0  0
  1 14  1  0
  1 23  1  0
  1 39  1  0
  2 22  2  0
  2 40  1  0
  3  9  2  0
  3 13  1  0
  3 18  1  0
 39  4  1  6
  5  9  1  0
  5 28  1  0
  5 32  2  0
  6 21  1  0
  7 21  2  0
  8 11  1  0
  8 25  1  0
  8 37  2  0
  9 22  1  0
 10 33  1  0
 11 24  1  0
 12 19  1  0
 12 38  1  0
 13 31  1  0
 13 40  2  0
 14 27  1  1
 14 42  1  0
 29 15  1  1
 15 40  1  0
 16 30  2  0
 16 32  1  0
 17 26  2  0
 17 37  1  0
 17 39  1  0
 19 24  2  0
 44 20  1  6
 21 44  1  0
 22 30  1  0
 24 34  1  0
 25 33  2  0
 26 33  1  0
 42 27  1  1
 29 36  1  0
 29 42  1  0
 31 36  1  0
 31 43  1  1
 32 44  1  0
 34 41  1  0
 35 41  1  0
 35 43  1  0
 38 41  2  0
M  END
