
     RDKit          3D

 10 10  0  0  0  0  0  0  0  0999 V2000
   48.6720   51.7856   -0.8715 C   0  0  0  0  0  0  0  0  0  0  0  0
   47.5750   55.3794   -0.9913 O   0  0  0  0  0  0  0  0  0  0  0  0
   46.5933   53.4355    0.0894 C   0  0  0  0  0  0  0  0  0  0  0  0
   48.0434   51.4968    1.4470 O   0  0  0  0  0  0  0  0  0  0  0  0
   48.7703   53.2625   -0.9322 C   0  0  0  0  0  0  0  0  0  0  0  0
   47.6562   51.2569    0.1168 C   0  0  0  0  0  0  0  0  0  0  0  0
   45.3912   54.1678    0.1331 O   0  0  0  0  0  0  0  0  0  0  0  0
   46.3329   51.9752   -0.1944 C   0  0  0  0  0  0  0  0  0  0  0  0
   47.4554   53.9754   -1.0257 C   0  0  0  0  0  0  0  0  0  0  0  0
   45.3084   51.3771    0.5805 O   0  0  0  0  0  0  0  0  0  0  0  0
  1  5  1  0
  1  6  1  0
  2  9  1  0
  3  7  1  0
  3  8  1  0
  3  9  1  0
  4  6  1  0
  5  9  1  0
  6  8  1  0
  8 10  1  0
M  END
$$$$
