
     RDKit          3D

 18 18  0  0  0  0  0  0  0  0999 V2000
    4.5154    0.6740    1.4582 O   0  0  0  0  0  0  0  0  0  0  0  0
   -1.4908   -0.7762    0.4159 C   0  0  1  0  0  0  0  0  0  0  0  0
    4.4207   -0.2093    0.0148 P   0  0  0  0  0  0  0  0  0  0  0  0
    1.9694    0.3748   -0.2618 C   0  0  0  0  0  0  0  0  0  0  0  0
   -4.0919    2.5649   -0.0918 O   0  0  0  0  0  0  0  0  0  0  0  0
   -4.0530    1.0256   -0.7956 P   0  0  0  0  0  0  0  0  0  0  0  0
    0.3137   -2.3567    0.1903 O   0  0  0  0  0  0  0  0  0  0  0  0
    2.8239   -0.7451   -0.2563 O   0  0  0  0  0  0  0  0  0  0  0  0
   -1.5952    0.6393   -0.1758 C   0  0  1  0  0  0  0  0  0  0  0  0
    5.4331   -1.5587    0.1350 O   0  0  0  0  0  0  0  0  0  0  0  0
   -4.6113   -0.1164    0.3217 O   0  0  0  0  0  0  0  0  0  0  0  0
   -0.0036   -1.0256    0.5027 C   0  0  1  0  0  0  0  0  0  0  0  0
    0.5360   -0.0778   -0.5574 C   0  0  1  0  0  0  0  0  0  0  0  0
   -2.1186   -0.8870    1.6710 O   0  0  0  0  0  0  0  0  0  0  0  0
   -0.3137    1.0445   -0.6103 O   0  0  0  0  0  0  0  0  0  0  0  0
   -4.9599    1.0157   -2.0052 O   0  0  0  0  0  0  0  0  0  0  0  0
    4.8839    0.6462   -1.1440 O   0  0  0  0  0  0  0  0  0  0  0  0
   -2.4628    0.6477   -1.2930 O   0  0  0  0  0  0  0  0  0  0  0  0
  1  3  1  0
  2  9  1  0
  2 12  1  0
  2 14  1  1
  3  8  1  0
  3 10  1  0
  3 17  2  0
  4  8  1  0
 13  4  1  1
  5  6  1  0
  6 11  1  0
  6 16  2  0
  6 18  1  0
 12  7  1  6
  9 15  1  0
  9 18  1  6
 12 13  1  0
 13 15  1  0
M  END
