
     RDKit          3D

 17 18  0  0  0  0  0  0  0  0999 V2000
   -1.0488   -0.5625    0.7873 C   0  0  0  0  0  0  0  0  0  0  0  0
    4.1132   -0.1802    0.8244 N   0  0  0  0  0  0  0  0  0  0  0  0
    0.1007   -1.0236   -2.4555 O   0  0  0  0  0  0  0  0  0  0  0  0
   -2.7822    1.2549    0.3358 C   0  0  0  0  0  0  0  0  0  0  0  0
    2.3542    0.2779   -0.7259 C   0  0  0  0  0  0  0  0  0  0  0  0
    3.2354   -0.7359    1.6989 C   0  0  0  0  0  0  0  0  0  0  0  0
    1.4173   -0.2914    0.1564 C   0  0  0  0  0  0  0  0  0  0  0  0
    4.6689    0.9015   -1.2569 N   0  0  0  0  0  0  0  0  0  0  0  0
   -2.3646   -0.2138    0.0605 C   0  0  1  0  0  0  0  0  0  0  0  0
   -2.0168   -0.4410   -1.4289 C   0  0  2  0  0  0  0  0  0  0  0  0
    3.7087    0.3247   -0.3713 C   0  0  0  0  0  0  0  0  0  0  0  0
   -3.0168    1.4535    1.7038 O   0  0  0  0  0  0  0  0  0  0  0  0
   -3.4017   -1.0899    0.4343 O   0  0  0  0  0  0  0  0  0  0  0  0
    0.0136   -0.3510   -0.1877 N   0  0  0  0  0  0  0  0  0  0  0  0
    1.8770   -0.8016    1.3837 C   0  0  0  0  0  0  0  0  0  0  0  0
   -0.5160   -0.1573   -1.5350 C   0  0  1  0  0  0  0  0  0  0  0  0
   -2.7427    0.3879   -2.3003 O   0  0  0  0  0  0  0  0  0  0  0  0
  1  9  1  0
  1 14  1  0
  2  6  1  0
  2 11  2  0
 16  3  1  6
  4  9  1  0
  4 12  1  0
  5  7  2  0
  5 11  1  0
  6 15  2  0
  7 14  1  0
  7 15  1  0
  8 11  1  0
  9 10  1  0
  9 13  1  1
 10 16  1  0
 10 17  1  6
 14 16  1  0
M  END
