
     RDKit          3D

 30 33  0  0  0  0  0  0  0  0999 V2000
   20.9063   35.7902  105.6238 C   0  0  0  0  0  0  0  0  0  0  0  0
   31.8914   34.1306  104.4724 C   0  0  0  0  0  0  0  0  0  0  0  0
   29.3350   33.7281  103.7100 C   0  0  0  0  0  0  0  0  0  0  0  0
   30.4140   35.0849  102.5704 C   0  0  0  0  0  0  0  0  0  0  0  0
   23.6333   36.3140  105.0572 O   0  0  0  0  0  0  0  0  0  0  0  0
   23.7384   32.5057  102.9135 C   0  0  0  0  0  0  0  0  0  0  0  0
   26.1032   32.4063  103.7941 C   0  0  0  0  0  0  0  0  0  0  0  0
   28.8193   33.2731  102.7020 C   0  0  0  0  0  0  0  0  0  0  0  0
   27.2331   34.7926  104.2995 N   0  0  0  0  0  0  0  0  0  0  0  0
   30.0072   37.0348  103.6103 O   0  0  0  0  0  0  0  0  0  0  0  0
   28.1585   35.3823  105.2457 C   0  0  0  0  0  0  0  0  0  0  0  0
   22.6946   33.9799  105.8513 C   0  0  0  0  0  0  0  0  0  0  0  0
   29.9103   35.8522  103.6232 C   0  0  0  0  0  0  0  0  0  0  0  0
   24.0627   34.9805  105.3863 S   0  0  0  0  0  0  0  0  0  0  0  0
   26.5846   35.4318  103.2752 C   0  0  0  0  0  0  0  0  0  0  0  0
   24.9482   34.8819  106.5961 O   0  0  0  0  0  0  0  0  0  0  0  0
   24.7165   34.2326  104.0322 N   0  0  0  0  0  0  0  0  0  0  0  0
   25.1920   35.0071  102.8406 C   0  0  0  0  0  0  0  0  0  0  0  0
   31.8795   34.6098  103.0136 C   0  0  0  0  0  0  0  0  0  0  0  0
   30.7512   34.5940  105.3206 C   0  0  0  0  0  0  0  0  0  0  0  0
   19.6969   35.2244  104.9437 C   0  0  0  0  0  0  0  0  0  0  0  0
   29.4399   34.9213  104.6178 C   0  0  0  0  0  0  0  0  0  0  0  0
   27.0402   33.3494  104.5147 C   0  0  0  0  0  0  0  0  0  0  0  0
   28.3695   32.6601  104.0069 C   0  0  0  0  0  0  0  0  0  0  0  0
   32.3181   33.6346  102.0483 O   0  0  0  0  0  0  0  0  0  0  0  0
   24.7403   33.0036  103.8735 C   0  0  0  0  0  0  0  0  0  0  0  0
   18.7734   36.2418  104.6987 O   0  0  0  0  0  0  0  0  0  0  0  0
   21.7193   34.8831  106.3747 C   0  0  0  0  0  0  0  0  0  0  0  0
   27.0912   36.3385  102.5931 O   0  0  0  0  0  0  0  0  0  0  0  0
   23.0608   33.2746  107.1307 C   0  0  0  0  0  0  0  0  0  0  0  0
  1 21  1  0
  1 28  1  0
  2 19  1  0
  2 20  1  0
  3  8  1  0
  3 22  1  0
  3 24  1  0
  4 13  1  0
  4 19  1  0
  5 14  2  0
  6 26  1  0
  7 23  1  0
  7 26  1  0
  8 24  1  0
  9 11  1  0
  9 15  1  0
  9 23  1  0
 10 13  2  0
 11 22  1  0
 12 14  1  0
 12 28  1  0
 12 30  1  0
 13 22  1  0
 14 16  2  0
 14 17  1  0
 15 18  1  0
 15 29  2  0
 17 18  1  0
 17 26  1  0
 19 25  1  0
 20 22  1  0
 21 27  1  0
 23 24  1  0
M  END
$$$$
