
     RDKit          3D

 19 20  0  0  0  0  0  0  0  0999 V2000
   25.7076   34.2832  103.1170 C   0  0  0  0  0  0  0  0  0  0  0  0
   30.8058   35.2639  104.9129 O   0  0  0  0  0  0  0  0  0  0  0  0
   31.0369   35.3850  103.5580 C   0  0  0  0  0  0  0  0  0  0  0  0
   29.1187   36.2844  102.7132 O   0  0  0  0  0  0  0  0  0  0  0  0
   26.1900   35.2688  105.7254 C   0  0  0  0  0  0  0  0  0  0  0  0
   28.1629   33.5216  103.1191 C   0  0  0  0  0  0  0  0  0  0  0  0
   32.4364   34.1040  102.1180 O   0  0  0  0  0  0  0  0  0  0  0  0
   27.1004   34.4605  103.5606 C   0  0  0  0  0  0  0  0  0  0  0  0
   30.6714   33.2707  103.3560 C   0  0  0  0  0  0  0  0  0  0  0  0
   23.8297   35.1120  102.9765 C   0  0  0  0  0  0  0  0  0  0  0  0
   29.4769   34.0446  103.0379 N   0  0  0  0  0  0  0  0  0  0  0  0
   23.0962   37.3672  102.5739 C   0  0  0  0  0  0  0  0  0  0  0  0
   29.7538   35.3329  103.0533 C   0  0  0  0  0  0  0  0  0  0  0  0
   24.8995   35.2303  103.7394 N   0  0  0  0  0  0  0  0  0  0  0  0
   21.5444   35.6427  103.6228 C   0  0  0  0  0  0  0  0  0  0  0  0
   31.7649   34.1053  103.3468 C   0  0  0  0  0  0  0  0  0  0  0  0
   24.8694   35.1139  105.1630 C   0  0  0  0  0  0  0  0  0  0  0  0
   22.8867   36.1916  103.0286 C   0  0  0  0  0  0  0  0  0  0  0  0
   27.3330   34.5366  105.0420 C   0  0  0  0  0  0  0  0  0  0  0  0
  1  8  1  0
  1 14  1  0
  2  3  1  0
  3 13  1  0
  3 16  1  0
  4 13  2  0
  5 17  1  0
  5 19  1  0
  6  8  1  0
  6 11  1  0
  7 16  1  0
  8 19  1  0
  9 11  1  0
  9 16  1  0
 10 14  1  0
 10 18  1  0
 11 13  1  0
 12 18  2  0
 14 17  1  0
 15 18  1  0
M  END
$$$$
