
     RDKit          3D

  6  6  0  0  0  0  0  0  0  0999 V2000
   31.8041   -9.5231  -73.1109 C   0  0  0  0  0  0  0  0  0  0  0  0
   32.1667  -10.3124  -74.1440 C   0  0  0  0  0  0  0  0  0  0  0  0
   31.0949   -8.4731  -71.5678 C   0  0  0  0  0  0  0  0  0  0  0  0
   31.5307   -9.6602  -71.8843 C   0  0  0  0  0  0  0  0  0  0  0  0
   30.6815   -7.7624  -70.5539 N   0  0  0  0  0  0  0  0  0  0  0  0
   31.3830   -8.3298  -72.7759 N   0  0  0  0  0  0  0  0  0  0  0  0
  1  2  1  0
  1  4  2  0
  1  6  1  0
  3  4  1  0
  3  5  1  0
  3  6  2  0
M  END
$$$$
