
     RDKit          3D

 12 12  0  0  0  0  0  0  0  0999 V2000
   36.8968  -36.0185   10.7037 C   0  0  0  0  0  0  0  0  0  0  0  0
   36.2436  -34.1815    6.0511 S   0  0  0  0  0  0  0  0  0  0  0  0
   36.4434  -36.6946    8.5911 C   0  0  0  0  0  0  0  0  0  0  0  0
   36.7364  -37.0773    9.8672 C   0  0  0  0  0  0  0  0  0  0  0  0
   37.7805  -34.0665    5.6405 O   0  0  0  0  0  0  0  0  0  0  0  0
   36.4656  -35.3157    8.6518 C   0  0  0  0  0  0  0  0  0  0  0  0
   36.6356  -34.1416    7.7620 C   0  0  0  0  0  0  0  0  0  0  0  0
   37.7920  -35.9797   11.7632 C   0  0  0  0  0  0  0  0  0  0  0  0
   35.9774  -37.7614    7.4297 Cl  0  0  0  0  0  0  0  0  0  0  0  0
   37.4660  -33.0054    8.1217 N   0  0  0  0  0  0  0  0  0  0  0  0
   36.7940  -34.9453    9.9636 O   0  0  0  0  0  0  0  0  0  0  0  0
   38.6315  -36.6897   12.1011 C   0  0  0  0  0  0  0  0  0  0  0  0
  1  4  2  0
  1  8  1  0
  1 11  1  0
  2  5  2  0
  2  7  1  0
  3  4  1  0
  3  6  2  0
  3  9  1  0
  6  7  1  0
  6 11  1  0
  7 10  2  0
  8 12  2  0
M  END
$$$$
