
     RDKit          3D

 22 24  0  0  0  0  0  0  0  0999 V2000
   -0.5001   -1.5290   -0.2336 C   0  0  0  0  0  0  0  0  0  0  0  0
    5.8486    1.3993   -1.1525 C   0  0  0  0  0  0  0  0  0  0  0  0
    0.0484   -0.5494    0.5186 N   0  0  0  0  0  0  0  0  0  0  0  0
   -2.8744   -2.1369   -1.0413 C   0  0  0  0  0  0  0  0  0  0  0  0
    2.1761   -1.3073    1.6244 C   0  0  0  0  0  0  0  0  0  0  0  0
    0.2685   -2.5373   -1.0365 C   0  0  0  0  0  0  0  0  0  0  0  0
    4.3594    1.2255   -1.4631 C   0  0  0  0  0  0  0  0  0  0  0  0
    1.5932    0.7051   -1.4379 O   0  0  0  0  0  0  0  0  0  0  0  0
   -1.8719   -1.3425   -0.2589 C   0  0  0  0  0  0  0  0  0  0  0  0
    2.2339    0.3623   -0.4070 C   0  0  0  0  0  0  0  0  0  0  0  0
   -5.8031    1.6757    1.5406 C   0  0  0  0  0  0  0  0  0  0  0  0
   -3.4425    1.8142    1.0176 C   0  0  0  0  0  0  0  0  0  0  0  0
   -4.6503    2.4393    1.3431 C   0  0  0  0  0  0  0  0  0  0  0  0
    3.6483    0.6117   -0.3405 N   0  0  0  0  0  0  0  0  0  0  0  0
    6.0303    2.2574   -0.0584 O   0  0  0  0  0  0  0  0  0  0  0  0
   -2.0910   -0.2277    0.5455 C   0  0  0  0  0  0  0  0  0  0  0  0
   -3.3810    0.4173    0.8734 C   0  0  0  0  0  0  0  0  0  0  0  0
    1.8495    0.0868    2.1534 C   0  0  0  0  0  0  0  0  0  0  0  0
   -0.9050    0.2450    0.9804 N   0  0  0  0  0  0  0  0  0  0  0  0
    1.4762   -0.2960    0.7258 C   0  0  0  0  0  0  0  0  0  0  0  0
   -4.5428   -0.3442    1.0941 C   0  0  0  0  0  0  0  0  0  0  0  0
   -5.7483    0.2851    1.4203 C   0  0  0  0  0  0  0  0  0  0  0  0
  1  3  1  0
  1  6  1  0
  1  9  2  0
  2  7  1  0
  2 15  1  0
  3 19  1  0
  3 20  1  0
  4  9  1  0
  5 18  1  0
  5 20  1  0
  7 14  1  0
  8 10  2  0
  9 16  1  0
 10 14  1  0
 10 20  1  0
 11 13  2  0
 11 22  1  0
 12 13  1  0
 12 17  2  0
 16 17  1  0
 16 19  2  0
 17 21  1  0
 18 20  1  0
 21 22  2  0
M  END
