
     RDKit          3D

 20 22  0  0  0  0  0  0  0  0999 V2000
    4.6116    0.1220   -1.4053 N   0  0  0  0  0  0  0  0  0  0  0  0
   -1.7860   -0.0597   -0.1124 C   0  0  0  0  0  0  0  0  0  0  0  0
   -0.7543    1.5014    1.5311 N   0  0  0  0  0  0  0  0  0  0  0  0
    1.9082   -1.8394   -1.3357 C   0  0  0  0  0  0  0  0  0  0  0  0
   -2.7262   -0.4608   -2.7369 C   0  0  0  0  0  0  0  0  0  0  0  0
    2.2770   -0.5239   -1.1320 C   0  0  0  0  0  0  0  0  0  0  0  0
   -1.8285    0.5716   -2.4687 C   0  0  0  0  0  0  0  0  0  0  0  0
   -2.6807   -1.1174   -0.4015 C   0  0  0  0  0  0  0  0  0  0  0  0
    3.2640    0.2482   -1.9535 C   0  0  0  0  0  0  0  0  0  0  0  0
   -0.0312   -0.7919    1.5987 C   0  0  1  0  0  0  0  0  0  0  0  0
   -3.2246   -2.2453    0.8369 Cl  0  0  0  0  0  0  0  0  0  0  0  0
    0.3398    1.4170    2.5148 C   0  0  0  0  0  0  0  0  0  0  0  0
   -1.3561    0.7699   -1.1698 C   0  0  0  0  0  0  0  0  0  0  0  0
    0.6816   -0.0564    2.7212 C   0  0  0  0  0  0  0  0  0  0  0  0
   -1.8413    2.3798    1.9927 C   0  0  0  0  0  0  0  0  0  0  0  0
   -1.2222    0.1248    1.2936 C   0  0  2  0  0  0  0  0  0  0  0  0
    1.0040   -2.1323   -0.3373 C   0  0  0  0  0  0  0  0  0  0  0  0
   -3.1482   -1.3037   -1.7082 C   0  0  0  0  0  0  0  0  0  0  0  0
    0.8869   -0.9783    0.4141 C   0  0  0  0  0  0  0  0  0  0  0  0
    1.6576   -0.0369   -0.0827 O   0  0  0  0  0  0  0  0  0  0  0  0
  1  9  1  0
  2  8  1  0
  2 13  2  0
 16  2  1  6
  3 12  1  0
  3 15  1  0
  3 16  1  0
  4  6  2  0
  4 17  1  0
  5  7  2  0
  5 18  1  0
  6  9  1  0
  6 20  1  0
  7 13  1  0
  8 11  1  0
  8 18  2  0
 10 14  1  0
 10 16  1  0
 10 19  1  6
 12 14  1  0
 17 19  2  0
 19 20  1  0
M  END
