
     RDKit          3D

 35 39  0  0  0  0  0  0  0  0999 V2000
    3.1562   -0.9486    0.8059 C   0  0  0  0  0  0  0  0  0  0  0  0
   -5.1396   -2.8687   -2.3860 C   0  0  0  0  0  0  0  0  0  0  0  0
    2.4255    1.3297   -0.9015 C   0  0  0  0  0  0  0  0  0  0  0  0
   -0.6589   -0.4148    0.0718 C   0  0  2  0  0  0  0  0  0  0  0  0
    3.9299   -1.2717    1.9229 O   0  0  0  0  0  0  0  0  0  0  0  0
    1.1607    2.3734    1.1201 C   0  0  2  0  0  0  0  0  0  0  0  0
   -0.2631    2.2203    1.7075 C   0  0  0  0  0  0  0  0  0  0  0  0
    3.2925    2.5321   -1.1871 C   0  0  0  0  0  0  0  0  0  0  0  0
    0.4766   -2.1250    2.6606 O   0  0  0  0  0  0  0  0  0  0  0  0
    0.6143    4.5383   -0.2774 C   0  0  0  0  0  0  0  0  0  0  0  0
   -3.2692   -1.7454   -1.5462 C   0  0  2  0  0  0  0  0  0  0  0  0
    5.2398   -0.5623   -0.4384 C   0  0  0  0  0  0  0  0  0  0  0  0
   -1.8399    0.6597    0.3622 C   0  0  2  0  0  0  0  0  0  0  0  0
    3.7653   -0.5988   -0.3460 C   0  0  0  0  0  0  0  0  0  0  0  0
    1.4444    3.8840    0.8324 C   0  0  0  0  0  0  0  0  0  0  0  0
   -4.1608   -2.8375   -1.3693 O   0  0  0  0  0  0  0  0  0  0  0  0
   -5.0890    0.6278    2.0588 C   0  0  0  0  0  0  0  0  0  0  0  0
    0.8310   -0.0728    0.3952 C   0  0  0  0  0  0  0  0  0  0  0  0
   -1.8456   -2.2742   -1.2936 C   0  0  0  0  0  0  0  0  0  0  0  0
    1.4271    1.2813    0.0464 C   0  0  0  0  0  0  0  0  0  0  0  0
   -3.6584    1.0840    2.3132 C   0  0  0  0  0  0  0  0  0  0  0  0
    2.9688    0.0323   -1.4559 C   0  0  0  0  0  0  0  0  0  0  0  0
   -2.5543    1.2761   -2.1437 C   0  0  0  0  0  0  0  0  0  0  0  0
   -4.9904   -0.8159    1.6172 C   0  0  0  0  0  0  0  0  0  0  0  0
   -1.3043    2.0959    0.5868 C   0  0  0  0  0  0  0  0  0  0  0  0
   -3.6469   -0.9360    0.9029 C   0  0  1  0  0  0  0  0  0  0  0  0
    1.1701   -2.3655    1.4672 C   0  0  0  0  0  0  0  0  0  0  0  0
   -0.7322   -1.2120   -1.2655 C   0  0  0  0  0  0  0  0  0  0  0  0
   -3.7256   -0.5801   -0.6169 C   0  0  1  0  0  0  0  0  0  0  0  0
   -2.7173    0.1089    1.5553 C   0  0  1  0  0  0  0  0  0  0  0  0
    1.6700   -1.0522    0.8931 C   0  0  0  0  0  0  0  0  0  0  0  0
    6.0080   -1.6657   -0.4750 C   0  0  0  0  0  0  0  0  0  0  0  0
    7.4980   -1.5026   -0.5949 C   0  0  0  0  0  0  0  0  0  0  0  0
   -2.9326    0.7322   -0.7393 C   0  0  1  0  0  0  0  0  0  0  0  0
    5.4069   -3.0495   -0.4552 C   0  0  0  0  0  0  0  0  0  0  0  0
  1  5  1  0
  1 14  2  0
  1 31  1  0
  2 16  1  0
  3  8  1  0
  3 20  2  0
  3 22  1  0
  4 13  1  0
  4 18  1  0
  4 28  1  6
  6  7  1  0
  6 15  1  6
  6 20  1  0
  7 25  1  0
  9 27  1  0
 10 15  1  0
 11 16  1  1
 11 19  1  0
 29 11  1  6
 12 14  1  0
 12 32  2  3
 13 25  1  1
 13 30  1  0
 13 34  1  0
 14 22  1  0
 17 21  1  0
 17 24  1  0
 18 20  1  0
 18 31  2  0
 19 28  1  0
 30 21  1  6
 34 23  1  6
 26 24  1  1
 26 29  1  0
 26 30  1  0
 27 31  1  0
 29 34  1  0
 32 33  1  0
 32 35  1  0
M  END
