
     RDKit          3D

 22 23  0  0  0  0  0  0  0  0999 V2000
   -0.9136    2.0800   -0.6305 C   0  0  1  0  0  0  0  0  0  0  0  0
   -1.5299   -0.3809    0.0274 C   0  0  0  0  0  0  0  0  0  0  0  0
    3.0363   -4.3444    2.5377 Cl  0  0  0  0  0  0  0  0  0  0  0  0
   -0.5521   -0.0688   -2.7793 O   0  0  0  0  0  0  0  0  0  0  0  0
    0.1499    0.0350   -1.7847 C   0  0  0  0  0  0  0  0  0  0  0  0
   -3.2491   -1.0304    1.7525 C   0  0  0  0  0  0  0  0  0  0  0  0
    1.5913   -3.6677    0.3043 C   0  0  0  0  0  0  0  0  0  0  0  0
    1.2118   -2.8119   -0.7439 C   0  0  0  0  0  0  0  0  0  0  0  0
   -2.1395    2.2688   -1.5445 C   0  0  0  0  0  0  0  0  0  0  0  0
    2.5201    0.5796   -1.4541 N   0  0  0  0  0  0  0  0  0  0  0  0
    3.1884   -2.0075    1.1161 C   0  0  0  0  0  0  0  0  0  0  0  0
    2.7891   -1.1801    0.0685 C   0  0  0  0  0  0  0  0  0  0  0  0
    1.5743   -0.4692   -1.8486 C   0  0  1  0  0  0  0  0  0  0  0  0
   -1.1158    0.0531    2.5162 C   0  0  0  0  0  0  0  0  0  0  0  0
    1.8211   -1.5589   -0.8364 C   0  0  0  0  0  0  0  0  0  0  0  0
   -0.1306    4.3495   -1.0016 O   0  0  0  0  0  0  0  0  0  0  0  0
    4.1225    0.8130    0.2751 O   0  0  0  0  0  0  0  0  0  0  0  0
   -2.1616   -0.0096    1.3919 C   0  0  0  0  0  0  0  0  0  0  0  0
    3.2330    0.1382   -0.3065 C   0  0  0  0  0  0  0  0  0  0  0  0
    2.5749   -3.2669    1.2334 C   0  0  0  0  0  0  0  0  0  0  0  0
   -0.4405    0.5944   -0.4958 C   0  0  1  0  0  0  0  0  0  0  0  0
    0.2424    2.9992   -1.0789 C   0  0  0  0  0  0  0  0  0  0  0  0
  1  9  1  6
  1 21  1  0
  1 22  1  0
  2 18  1  0
 21  2  1  6
  3 20  1  0
  4  5  2  0
 13  5  1  1
  5 21  1  0
  6 18  1  0
  7  8  2  0
  7 20  1  0
  8 15  1  0
 10 13  1  0
 10 19  1  0
 11 12  1  0
 11 20  2  0
 12 15  2  0
 12 19  1  0
 13 15  1  0
 14 18  1  0
 16 22  1  0
 17 19  2  0
M  END
