
     RDKit          3D

 15 16  0  0  0  0  0  0  0  0999 V2000
   -4.2624    2.2687    0.1737 O   0  0  0  0  0  0  0  0  0  0  0  0
   -3.6031    0.0144    0.7934 C   0  0  0  0  0  0  0  0  0  0  0  0
    5.4629    0.6554   -0.3862 C   0  0  0  0  0  0  0  0  0  0  0  0
   -6.2829    1.0804   -1.1178 O   0  0  0  0  0  0  0  0  0  0  0  0
    3.6059   -0.8461    0.4330 C   0  0  0  0  0  0  0  0  0  0  0  0
   -0.3012   -0.8835    0.6267 C   0  0  0  0  0  0  0  0  0  0  0  0
   -2.8053   -1.1578    0.2127 C   0  0  0  0  0  0  0  0  0  0  0  0
   -1.4728    0.7279   -0.9874 C   0  0  0  0  0  0  0  0  0  0  0  0
    4.0121    0.5931    0.0831 C   0  0  0  0  0  0  0  0  0  0  0  0
   -3.8571    1.0539   -0.3075 C   0  0  1  0  0  0  0  0  0  0  0  0
    1.0899   -0.6707    0.0076 C   0  0  0  0  0  0  0  0  0  0  0  0
   -5.1694    1.3542   -0.6004 C   0  0  0  0  0  0  0  0  0  0  0  0
    2.1967   -0.9327    1.0402 C   0  0  0  0  0  0  0  0  0  0  0  0
   -1.4437   -0.7168   -0.4034 C   0  0  1  0  0  0  0  0  0  0  0  0
   -2.8643    1.1447   -1.4728 C   0  0  0  0  0  0  0  0  0  0  0  0
  1 10  1  0
  1 12  1  0
  2  7  1  0
 10  2  1  1
  3  9  1  0
  4 12  2  0
  5  9  1  0
  5 13  1  0
  6 11  1  0
 14  6  1  1
  7 14  1  0
  8 14  1  0
  8 15  1  0
 10 12  1  0
 10 15  1  0
 11 13  1  0
M  END
