
     RDKit          3D

 13 13  0  0  0  0  0  0  0  0999 V2000
   -1.7961   -0.3350    0.2759 C   0  0  0  0  0  0  0  0  0  0  0  0
   -1.6981    1.0349    0.5770 C   0  0  0  0  0  0  0  0  0  0  0  0
    2.0632   -0.0087    0.6848 C   0  0  0  0  0  0  0  0  0  0  0  0
    2.9594    1.1536    0.2295 C   0  0  0  0  0  0  0  0  0  0  0  0
    1.2068   -0.5747   -0.4608 C   0  0  0  0  0  0  0  0  0  0  0  0
   -0.8501   -1.3162    0.9270 C   0  0  0  0  0  0  0  0  0  0  0  0
   -3.6104    0.1646   -1.2679 C   0  0  0  0  0  0  0  0  0  0  0  0
   -3.5045    1.5225   -0.9579 C   0  0  0  0  0  0  0  0  0  0  0  0
   -2.8708   -2.1229   -0.9739 O   0  0  0  0  0  0  0  0  0  0  0  0
    4.1241    0.6964   -0.6486 C   0  0  0  0  0  0  0  0  0  0  0  0
   -2.7600   -0.7690   -0.6573 C   0  0  0  0  0  0  0  0  0  0  0  0
   -2.5494    1.9569   -0.0372 C   0  0  0  0  0  0  0  0  0  0  0  0
    0.2989   -1.7332   -0.0086 C   0  0  0  0  0  0  0  0  0  0  0  0
  1  2  2  0
  1  6  1  0
  1 11  1  0
  2 12  1  0
  3  4  1  0
  3  5  1  0
  4 10  1  0
  5 13  1  0
  6 13  1  0
  7  8  1  0
  7 11  2  0
  8 12  2  0
  9 11  1  0
M  END
