
     RDKit          3D

 34 38  0  0  0  0  0  0  0  0999 V2000
   -3.4973    0.2034    0.0105 C   0  0  0  0  0  0  0  0  0  0  0  0
    3.2377    2.9540   -0.4835 C   0  0  0  0  0  0  0  0  0  0  0  0
    4.0531    2.9001   -1.5998 F   0  0  0  0  0  0  0  0  0  0  0  0
    4.9910   -1.0726   -0.1457 C   0  0  0  0  0  0  0  0  0  0  0  0
   -2.1340    1.9882   -0.9619 S   0  0  0  0  0  0  0  0  0  0  0  0
    4.4242    0.2151   -0.2513 C   0  0  0  0  0  0  0  0  0  0  0  0
    6.4308   -1.2505   -0.1200 N   0  0  0  0  0  0  0  0  0  0  0  0
   -1.3543   -1.3588    2.2141 C   0  0  0  0  0  0  0  0  0  0  0  0
    4.1300   -2.1828   -0.0655 C   0  0  0  0  0  0  0  0  0  0  0  0
   -6.1972    1.4633   -0.8669 C   0  0  0  0  0  0  0  0  0  0  0  0
   -1.6313   -2.6805    0.0692 C   0  0  0  0  0  0  0  0  0  0  0  0
    3.0239    0.3992   -0.2800 C   0  0  0  0  0  0  0  0  0  0  0  0
   -3.6900    1.4273   -0.6149 C   0  0  0  0  0  0  0  0  0  0  0  0
    2.4392    4.0799   -0.5935 F   0  0  0  0  0  0  0  0  0  0  0  0
   -7.3519    2.1372   -1.1162 N   0  0  0  0  0  0  0  0  0  0  0  0
    2.1910   -0.7400   -0.1973 C   0  0  0  0  0  0  0  0  0  0  0  0
   -2.2067   -0.2277    0.1449 C   0  0  0  0  0  0  0  0  0  0  0  0
    7.0241   -2.4299    0.5212 C   0  0  0  0  0  0  0  0  0  0  0  0
   -4.9628    3.5143   -1.1655 C   0  0  0  0  0  0  0  0  0  0  0  0
    2.4159    1.6798   -0.3869 C   0  0  0  0  0  0  0  0  0  0  0  0
    0.2275    0.5987   -0.3092 C   0  0  0  0  0  0  0  0  0  0  0  0
   -4.9633    2.1386   -0.8791 C   0  0  0  0  0  0  0  0  0  0  0  0
    4.0172    3.0932    0.6508 F   0  0  0  0  0  0  0  0  0  0  0  0
    7.3175   -0.2574   -0.7381 C   0  0  0  0  0  0  0  0  0  0  0  0
    0.8415   -0.6047   -0.2186 N   0  0  0  0  0  0  0  0  0  0  0  0
   -4.1834   -1.9070    2.6345 C   0  0  0  0  0  0  0  0  0  0  0  0
   -1.2506    0.6782   -0.3406 C   0  0  0  0  0  0  0  0  0  0  0  0
   -7.3608    3.4690   -1.3835 C   0  0  0  0  0  0  0  0  0  0  0  0
   -3.7405   -1.7596    1.1748 C   0  0  2  0  0  0  0  0  0  0  0  0
   -2.1855   -1.5222    0.9226 C   0  0  0  0  0  0  0  0  0  0  0  0
    1.0095    1.7592   -0.4009 C   0  0  0  0  0  0  0  0  0  0  0  0
   -4.4092   -0.6408    0.5941 O   0  0  0  0  0  0  0  0  0  0  0  0
    2.7467   -2.0157   -0.0913 C   0  0  0  0  0  0  0  0  0  0  0  0
   -6.1629    4.1817   -1.4150 C   0  0  0  0  0  0  0  0  0  0  0  0
  1 13  2  0
  1 17  1  0
  1 32  1  0
  2  3  1  0
  2 14  1  0
  2 20  1  0
  2 23  1  0
  4  6  2  0
  4  7  1  0
  4  9  1  0
  5 13  1  0
  5 27  1  0
  6 12  1  0
  7 18  1  0
  7 24  1  0
  8 30  1  0
  9 33  2  0
 10 15  2  0
 10 22  1  0
 11 30  1  0
 12 16  1  0
 12 20  2  0
 13 22  1  0
 15 28  1  0
 16 25  2  0
 16 33  1  0
 17 27  2  0
 17 30  1  0
 19 22  2  0
 19 34  1  0
 20 31  1  0
 21 25  1  0
 21 27  1  0
 21 31  2  0
 29 26  1  1
 28 34  2  0
 29 30  1  0
 29 32  1  0
M  END
