
     RDKit          3D

 25 28  0  0  0  0  0  0  0  0999 V2000
   -1.6980   -1.7811   -1.5640 C   0  0  0  0  0  0  0  0  0  0  0  0
   -0.5462    2.6234   -0.2253 C   0  0  0  0  0  0  0  0  0  0  0  0
    3.9954    1.1222   -0.5933 C   0  0  0  0  0  0  0  0  0  0  0  0
   -4.1126   -0.5924    0.1872 O   0  0  0  0  0  0  0  0  0  0  0  0
   -1.4557    3.6843   -0.2769 C   0  0  0  0  0  0  0  0  0  0  0  0
    2.2444   -0.5140   -0.2250 C   0  0  0  0  0  0  0  0  0  0  0  0
    1.6977    1.8531   -0.3590 C   0  0  0  0  0  0  0  0  0  0  0  0
   -2.3958    1.0522    0.0476 C   0  0  0  0  0  0  0  0  0  0  0  0
    5.0236   -1.5951    0.8179 F   0  0  0  0  0  0  0  0  0  0  0  0
   -0.0848    0.2563    0.0885 C   0  0  0  0  0  0  0  0  0  0  0  0
    0.7830    2.8586   -0.3731 N   0  0  0  0  0  0  0  0  0  0  0  0
    4.6237   -1.3260   -0.4777 C   0  0  0  0  0  0  0  0  0  0  0  0
    3.5989   -0.2190   -0.4606 C   0  0  0  0  0  0  0  0  0  0  0  0
   -0.0287   -1.6239    1.7363 C   0  0  0  0  0  0  0  0  0  0  0  0
   -2.8769   -0.3501    0.0979 C   0  0  0  0  0  0  0  0  0  0  0  0
    1.2856    0.5151   -0.1510 C   0  0  0  0  0  0  0  0  0  0  0  0
    4.0878   -2.4754   -1.0323 F   0  0  0  0  0  0  0  0  0  0  0  0
   -2.8258    3.4378   -0.1553 C   0  0  0  0  0  0  0  0  0  0  0  0
   -1.8766   -1.4847   -0.0631 C   0  0  0  0  0  0  0  0  0  0  0  0
    3.0490    2.1476   -0.5589 C   0  0  0  0  0  0  0  0  0  0  0  0
    5.7311   -0.9626   -1.2246 F   0  0  0  0  0  0  0  0  0  0  0  0
   -0.5711   -1.0441    0.4959 N   0  0  0  0  0  0  0  0  0  0  0  0
   -2.4147   -2.7681    0.6200 C   0  0  0  0  0  0  0  0  0  0  0  0
   -3.2970    2.1299   -0.0037 C   0  0  0  0  0  0  0  0  0  0  0  0
   -1.0116    1.3069   -0.0292 C   0  0  0  0  0  0  0  0  0  0  0  0
  1 19  1  0
  2  5  2  0
  2 11  1  0
  2 25  1  0
  3 13  1  0
  3 20  2  0
  4 15  2  0
  5 18  1  0
  6 13  2  0
  6 16  1  0
  7 11  2  0
  7 16  1  0
  7 20  1  0
  8 15  1  0
  8 24  1  0
  8 25  2  0
  9 12  1  0
 10 16  2  0
 10 22  1  0
 10 25  1  0
 12 13  1  0
 12 17  1  0
 12 21  1  0
 14 22  1  0
 15 19  1  0
 18 24  2  0
 19 22  1  0
 19 23  1  0
M  END
