
     RDKit          3D

 21 22  0  0  0  0  0  0  0  0999 V2000
    8.6313   13.9600   31.9298 C   0  0  0  0  0  0  0  0  0  0  0  0
   17.8768   14.2635   35.1735 N   0  0  0  0  0  0  0  0  0  0  0  0
   11.0971   15.5761   34.1634 O   0  0  0  0  0  0  0  0  0  0  0  0
   17.3966   14.9427   37.5680 O   0  0  0  0  0  0  0  0  0  0  0  0
   13.5043   14.8080   36.8868 C   0  0  0  0  0  0  0  0  0  0  0  0
    7.7624   11.5394   30.9973 Cl  0  0  0  0  0  0  0  0  0  0  0  0
   11.9716   16.5542   37.6832 C   0  0  0  0  0  0  0  0  0  0  0  0
    9.0303   12.1203   33.3072 C   0  0  0  0  0  0  0  0  0  0  0  0
   16.8296   15.0960   36.2185 S   0  0  0  0  0  0  0  0  0  0  0  0
    9.6604   12.9780   33.9648 C   0  0  0  0  0  0  0  0  0  0  0  0
   11.2257   16.5054   36.5206 C   0  0  0  0  0  0  0  0  0  0  0  0
   10.2536   12.5975   35.1858 O   0  0  0  0  0  0  0  0  0  0  0  0
    8.5081   12.6242   32.1933 C   0  0  0  0  0  0  0  0  0  0  0  0
   10.2332   14.5147   33.9041 C   0  0  0  0  0  0  0  0  0  0  0  0
   12.7840   14.7356   35.6873 C   0  0  0  0  0  0  0  0  0  0  0  0
    9.2436   14.7306   32.8982 C   0  0  0  0  0  0  0  0  0  0  0  0
   11.5978   15.6314   35.5162 C   0  0  0  0  0  0  0  0  0  0  0  0
   13.0840   15.7162   37.8610 C   0  0  0  0  0  0  0  0  0  0  0  0
   14.6760   13.9435   37.2106 C   0  0  0  0  0  0  0  0  0  0  0  0
   15.5751   13.9689   36.0716 O   0  0  0  0  0  0  0  0  0  0  0  0
   16.5056   16.3391   35.6574 O   0  0  0  0  0  0  0  0  0  0  0  0
  1 13  1  0
  1 16  2  0
  2  9  1  0
  3 14  1  0
  3 17  1  0
  4  9  2  0
  5 15  2  0
  5 18  1  0
  5 19  1  0
  6 13  1  0
  7 11  1  0
  7 18  2  0
  8 10  1  0
  8 13  2  0
  9 20  1  0
  9 21  2  0
 10 12  1  0
 10 14  2  0
 11 17  2  0
 14 16  1  0
 15 17  1  0
 19 20  1  0
M  END
$$$$
