
     RDKit          3D

 23 25  0  0  0  0  0  0  0  0999 V2000
   14.3042   15.7662   37.3592 C   0  0  0  0  0  0  0  0  0  0  0  0
   16.6283   15.2207   36.8899 C   0  0  0  0  0  0  0  0  0  0  0  0
   15.8564   13.6212   34.7459 C   0  0  0  0  0  0  0  0  0  0  0  0
   11.0708   14.7451   35.6587 C   0  0  0  0  0  0  0  0  0  0  0  0
    9.0150   13.0486   33.7669 N   0  0  0  0  0  0  0  0  0  0  0  0
    8.0779   11.6199   30.6593 C   0  0  0  0  0  0  0  0  0  0  0  0
   10.6818   13.2910   35.5975 C   0  0  0  0  0  0  0  0  0  0  0  0
   12.3860   17.2796   38.8269 C   0  0  0  0  0  0  0  0  0  0  0  0
    9.5047   15.5120   33.8322 C   0  0  0  0  0  0  0  0  0  0  0  0
    8.6535   10.9035   33.4414 O   0  0  0  0  0  0  0  0  0  0  0  0
   13.5110   14.1637   35.2089 C   0  0  0  0  0  0  0  0  0  0  0  0
   17.6103   14.6101   36.1083 C   0  0  0  0  0  0  0  0  0  0  0  0
    9.2657   14.2773   33.0255 C   0  0  0  0  0  0  0  0  0  0  0  0
   17.2173   13.8229   35.0002 C   0  0  0  0  0  0  0  0  0  0  0  0
    9.2876   12.9631   35.1892 C   0  0  0  0  0  0  0  0  0  0  0  0
   11.9706   16.3710   37.7879 O   0  0  0  0  0  0  0  0  0  0  0  0
   14.9004   14.2842   35.5115 C   0  0  0  0  0  0  0  0  0  0  0  0
   12.9284   15.6708   37.0730 C   0  0  0  0  0  0  0  0  0  0  0  0
   12.5421   14.8203   35.9639 C   0  0  0  0  0  0  0  0  0  0  0  0
   10.8765   15.5971   34.4308 C   0  0  0  0  0  0  0  0  0  0  0  0
    8.5149   11.9992   33.0529 C   0  0  0  0  0  0  0  0  0  0  0  0
    7.7520   12.1582   31.9911 N   0  0  0  0  0  0  0  0  0  0  0  0
   15.2640   15.0939   36.5772 C   0  0  0  0  0  0  0  0  0  0  0  0
  1 18  2  0
  1 23  1  0
  2 12  1  0
  2 23  2  0
  3 14  1  0
  3 17  2  0
  4  7  1  0
  4 19  1  0
  4 20  1  0
  5 13  1  0
  5 15  1  0
  5 21  1  0
  6 22  1  0
  7 15  1  0
  8 16  1  0
  9 13  1  0
  9 20  1  0
 10 21  2  0
 11 17  1  0
 11 19  2  0
 12 14  2  0
 16 18  1  0
 17 23  1  0
 18 19  1  0
 21 22  1  0
M  END
$$$$
