
     RDKit          3D

 22 23  0  0  0  0  0  0  0  0999 V2000
    8.4369   13.1078   31.3505 C   0  0  0  0  0  0  0  0  0  0  0  0
   14.1674   15.1639   36.5567 C   0  0  0  0  0  0  0  0  0  0  0  0
   10.2734   15.1181   34.5546 C   0  0  0  0  0  0  0  0  0  0  0  0
    9.4776   11.6539   32.9889 C   0  0  0  0  0  0  0  0  0  0  0  0
   11.7219   17.2431   38.1879 O   0  0  0  0  0  0  0  0  0  0  0  0
   13.3424   15.6209   37.7070 C   0  0  0  0  0  0  0  0  0  0  0  0
   16.5569   14.5853   36.3710 O   0  0  0  0  0  0  0  0  0  0  0  0
   11.4175   16.0538   36.3383 O   0  0  0  0  0  0  0  0  0  0  0  0
   11.6012   15.8212   34.9407 C   0  0  0  0  0  0  0  0  0  0  0  0
   18.9036   14.7207   35.6028 C   0  0  0  0  0  0  0  0  0  0  0  0
   15.3409   14.4086   37.1035 C   0  0  0  0  0  0  0  0  0  0  0  0
    9.2372   13.0601   33.6156 C   0  0  0  0  0  0  0  0  0  0  0  0
   10.4994   13.6107   34.2380 C   0  0  0  0  0  0  0  0  0  0  0  0
    8.4048   10.5864   31.0553 C   0  0  0  0  0  0  0  0  0  0  0  0
   14.0699   16.2763   38.6725 O   0  0  0  0  0  0  0  0  0  0  0  0
   12.7222   14.8346   34.6077 C   0  0  0  0  0  0  0  0  0  0  0  0
   17.8821   14.7914   36.8742 C   0  0  0  0  0  0  0  0  0  0  0  0
   13.4437   14.2770   35.7332 O   0  0  0  0  0  0  0  0  0  0  0  0
    8.7691   11.7518   31.7470 N   0  0  0  0  0  0  0  0  0  0  0  0
    8.8058   13.9719   32.4795 C   0  0  0  0  0  0  0  0  0  0  0  0
   15.3178   13.8084   38.1570 O   0  0  0  0  0  0  0  0  0  0  0  0
   12.3679   16.6578   37.2063 C   0  0  0  0  0  0  0  0  0  0  0  0
  1 19  1  0
  1 20  2  0
  2  6  1  0
  2 11  1  0
  2 18  1  0
  3  9  1  0
  3 13  1  0
  4 12  1  0
  4 19  1  0
  5 22  1  0
  6 15  1  0
  6 22  1  0
  7 11  1  0
  7 17  1  0
  8  9  1  0
  8 22  1  0
  9 16  1  0
 10 17  1  0
 11 21  2  0
 12 13  1  0
 12 20  1  0
 14 19  1  0
 16 18  1  0
M  END
$$$$
