
     RDKit          3D

 20 21  0  0  0  0  0  0  0  0999 V2000
   11.7390   -4.1130   31.7771 O   0  0  0  0  0  0  0  0  0  0  0  0
   10.0313    1.4133   34.3743 O   0  0  0  0  0  0  0  0  0  0  0  0
   11.9768   -0.3579   32.1431 C   0  0  0  0  0  0  0  0  0  0  0  0
   10.4624    4.2297   32.4617 C   0  0  0  0  0  0  0  0  0  0  0  0
   11.1098    4.7794   31.2228 C   0  0  0  0  0  0  0  0  0  0  0  0
   11.6454    2.1666   33.0032 N   0  0  0  0  0  0  0  0  0  0  0  0
   14.9206    1.1953   30.4238 C   0  0  0  0  0  0  0  0  0  0  0  0
   13.7060    2.8778   31.7071 C   0  0  0  0  0  0  0  0  0  0  0  0
   14.0651   -3.0039   31.3769 O   0  0  0  0  0  0  0  0  0  0  0  0
   11.3665    3.5242   33.4537 C   0  0  0  0  0  0  0  0  0  0  0  0
   10.8575    1.1994   33.5330 C   0  0  0  0  0  0  0  0  0  0  0  0
    9.1352    3.6035   32.1875 C   0  0  0  0  0  0  0  0  0  0  0  0
   12.9343    0.5936   31.7009 C   0  0  0  0  0  0  0  0  0  0  0  0
   11.9242   -1.5884   31.6212 O   0  0  0  0  0  0  0  0  0  0  0  0
   14.0086    0.2482   30.8576 C   0  0  0  0  0  0  0  0  0  0  0  0
   12.7958    1.9025   32.1273 C   0  0  0  0  0  0  0  0  0  0  0  0
   11.0245   -0.1152   33.0447 C   0  0  0  0  0  0  0  0  0  0  0  0
   12.7340   -2.9504   32.0958 P   0  0  0  0  0  0  0  0  0  0  0  0
   14.7654    2.5096   30.8563 C   0  0  0  0  0  0  0  0  0  0  0  0
   12.9999   -2.9223   33.6056 O   0  0  0  0  0  0  0  0  0  0  0  0
  1 18  1  0
  2 11  2  0
  3 13  1  0
  3 14  1  0
  3 17  2  0
  4  5  1  0
  4 10  1  0
  4 12  1  0
  6 10  1  0
  6 11  1  0
  6 16  1  0
  7 15  1  0
  7 19  2  0
  8 16  2  0
  8 19  1  0
  9 18  2  0
 11 17  1  0
 13 15  2  0
 13 16  1  0
 14 18  1  0
 18 20  1  0
M  END
$$$$
