
     RDKit          3D

 29 32  0  0  0  0  0  0  0  0999 V2000
   14.9959    1.4414   30.1497 C   0  0  0  0  0  0  0  0  0  0  0  0
   10.5605   -1.7042   34.7996 O   0  0  0  0  0  0  0  0  0  0  0  0
   14.3704    0.3715   30.5629 N   0  0  0  0  0  0  0  0  0  0  0  0
   10.5978    4.4362   32.1715 C   0  0  0  0  0  0  0  0  0  0  0  0
    9.8859    1.7191   34.2942 O   0  0  0  0  0  0  0  0  0  0  0  0
    8.7165   -3.4032   35.0388 O   0  0  0  0  0  0  0  0  0  0  0  0
   12.3788   -0.0460   32.1122 C   0  0  0  0  0  0  0  0  0  0  0  0
   14.4169    2.5960   30.6678 N   0  0  0  0  0  0  0  0  0  0  0  0
   12.8873    5.2715   32.1569 O   0  0  0  0  0  0  0  0  0  0  0  0
    8.3158   -1.0941   36.1807 O   0  0  0  0  0  0  0  0  0  0  0  0
   13.6958   -2.9050   31.2553 O   0  0  0  0  0  0  0  0  0  0  0  0
   12.0041    2.2916   33.3311 C   0  0  0  0  0  0  0  0  0  0  0  0
   10.0454   -0.8418   33.8715 C   0  0  0  0  0  0  0  0  0  0  0  0
   11.3985    0.9082   32.8746 C   0  0  0  0  0  0  0  0  0  0  0  0
   12.7671   -2.6993   32.4805 P   0  0  0  0  0  0  0  0  0  0  0  0
    9.3530   -2.2982   35.7360 P   0  0  0  0  0  0  0  0  0  0  0  0
   10.8672    2.8113   34.1467 C   0  0  0  0  0  0  0  0  0  0  0  0
   12.5223    2.9453   32.1212 N   0  0  0  0  0  0  0  0  0  0  0  0
   13.3939    2.2008   31.4460 C   0  0  0  0  0  0  0  0  0  0  0  0
   13.3413    0.8125   31.3908 C   0  0  0  0  0  0  0  0  0  0  0  0
   12.0342    4.2413   31.7954 C   0  0  0  0  0  0  0  0  0  0  0  0
   12.9009   -1.1021   32.9083 O   0  0  0  0  0  0  0  0  0  0  0  0
   11.2288   -3.0038   31.9826 O   0  0  0  0  0  0  0  0  0  0  0  0
    8.8107    4.0496   33.8464 O   0  0  0  0  0  0  0  0  0  0  0  0
   10.8179    0.5165   33.7999 C   0  0  0  0  0  0  0  0  0  0  0  0
   10.2331    4.1004   33.6395 C   0  0  0  0  0  0  0  0  0  0  0  0
    9.9937   -2.4953   37.2031 O   0  0  0  0  0  0  0  0  0  0  0  0
   13.1307   -3.5430   33.6735 O   0  0  0  0  0  0  0  0  0  0  0  0
   10.3498    5.8573   31.9520 O   0  0  0  0  0  0  0  0  0  0  0  0
  1  3  4  0
  1  8  4  0
  2 13  1  0
  2 16  1  0
  3 20  4  0
  4 21  1  0
  4 26  1  0
  4 29  1  0
  5 17  1  0
  5 25  1  0
  6 16  1  0
  7 14  1  0
  7 20  1  0
  7 22  1  0
  8 19  4  0
  9 21  1  0
 10 16  1  0
 11 15  1  0
 12 14  1  0
 12 17  1  0
 12 18  1  0
 13 25  1  0
 14 25  1  0
 15 22  1  0
 15 23  2  0
 15 28  1  0
 16 27  2  0
 17 26  1  0
 18 19  1  0
 18 21  1  0
 19 20  4  0
 24 26  1  0
M  END
$$$$
