
     RDKit          3D

 34 35  0  0  0  0  0  0  0  0999 V2000
   14.5687    4.6763   34.1903 C   0  0  0  0  0  0  0  0  0  0  0  0
    7.8495   -2.7937   37.9777 C   0  0  0  0  0  0  0  0  0  0  0  0
    8.0316   -4.1186   37.4426 C   0  0  0  0  0  0  0  0  0  0  0  0
   10.3692    6.1535   31.4190 N   0  0  0  0  0  0  0  0  0  0  0  0
    9.8058   -1.3950   35.8486 C   0  0  0  0  0  0  0  0  0  0  0  0
   15.2586    1.6537   29.3992 C   0  0  0  0  0  0  0  0  0  0  0  0
   13.9626   -3.0723   31.1349 O   0  0  0  0  0  0  0  0  0  0  0  0
    9.7697    0.8176   34.8859 C   0  0  0  0  0  0  0  0  0  0  0  0
   10.1066    3.8194   31.4762 C   0  0  0  0  0  0  0  0  0  0  0  0
   14.1206    1.6965   30.4820 C   0  0  0  0  0  0  0  0  0  0  0  0
   10.5748    2.5301   31.8108 C   0  0  0  0  0  0  0  0  0  0  0  0
   12.8195   -0.0291   32.0875 C   0  0  0  0  0  0  0  0  0  0  0  0
    8.7827    0.4275   37.0475 C   0  0  0  0  0  0  0  0  0  0  0  0
   11.6969   -3.4111   32.2737 O   0  0  0  0  0  0  0  0  0  0  0  0
   10.1072   -0.5251   34.8287 C   0  0  0  0  0  0  0  0  0  0  0  0
    9.1034    1.2996   36.0090 C   0  0  0  0  0  0  0  0  0  0  0  0
    5.8608   -2.1623   37.3487 O   0  0  0  0  0  0  0  0  0  0  0  0
   12.1267    4.9296   32.3303 N   0  0  0  0  0  0  0  0  0  0  0  0
   13.9469    0.2530   31.0644 C   0  0  0  0  0  0  0  0  0  0  0  0
   13.8854   -3.7507   33.6768 O   0  0  0  0  0  0  0  0  0  0  0  0
    6.5266   -2.3650   38.3006 C   0  0  0  0  0  0  0  0  0  0  0  0
   10.8967    4.9033   31.7447 C   0  0  0  0  0  0  0  0  0  0  0  0
   13.1523   -3.0812   32.5174 P   0  0  0  0  0  0  0  0  0  0  0  0
   10.2103   -1.3137   32.7321 O   0  0  0  0  0  0  0  0  0  0  0  0
   13.9585    3.5432   33.2721 C   0  0  0  0  0  0  0  0  0  0  0  0
    6.2038   -2.1283   39.5248 O   0  0  0  0  0  0  0  0  0  0  0  0
   12.5660    3.6645   32.6802 C   0  0  0  0  0  0  0  0  0  0  0  0
    9.1294   -0.9220   36.9609 C   0  0  0  0  0  0  0  0  0  0  0  0
   11.8522    2.4601   32.4204 C   0  0  0  0  0  0  0  0  0  0  0  0
   13.0813   -1.2523   32.9989 C   0  0  0  0  0  0  0  0  0  0  0  0
   12.3681    1.1438   32.9176 N   0  0  0  0  0  0  0  0  0  0  0  0
   12.1654   -1.3138   34.0401 O   0  0  0  0  0  0  0  0  0  0  0  0
    8.9377   -1.8545   38.0262 C   0  0  0  0  0  0  0  0  0  0  0  0
   10.7709   -1.0318   33.7996 C   0  0  0  0  0  0  0  0  0  0  0  0
  1 25  1  0
  2  3  1  0
  2 21  1  0
  2 33  1  0
  4 22  1  0
  5 15  1  0
  5 28  2  0
  6 10  1  0
  7 23  2  0
  8 15  2  0
  8 16  1  0
  9 11  2  0
  9 22  1  0
 10 19  1  0
 11 29  1  0
 12 19  1  0
 12 30  1  0
 12 31  1  0
 13 16  2  0
 13 28  1  0
 14 23  1  0
 15 34  1  0
 17 21  1  0
 18 22  2  0
 18 27  1  0
 20 23  1  0
 21 26  2  0
 23 30  1  0
 24 34  2  0
 25 27  1  0
 27 29  2  0
 28 33  1  0
 29 31  1  0
 30 32  1  0
 32 34  1  0
M  END
$$$$
