
     RDKit          3D

 24 25  0  0  0  0  0  0  0  0999 V2000
    9.9004    3.7714   33.0061 C   0  0  0  0  0  0  0  0  0  0  0  0
   11.5797   -0.4566   32.9936 C   0  0  0  0  0  0  0  0  0  0  0  0
   11.0657    4.0293   32.0663 C   0  0  0  0  0  0  0  0  0  0  0  0
   11.0539    1.8325   32.8437 N   0  0  0  0  0  0  0  0  0  0  0  0
   14.5371    5.0191   32.7061 O   0  0  0  0  0  0  0  0  0  0  0  0
   12.2125   -1.3423   32.0427 N   0  0  0  0  0  0  0  0  0  0  0  0
   13.2779    2.7117   33.8377 O   0  0  0  0  0  0  0  0  0  0  0  0
   14.0242   -3.1226   31.4301 O   0  0  0  0  0  0  0  0  0  0  0  0
    9.7313   -2.1069   33.3824 O   0  0  0  0  0  0  0  0  0  0  0  0
   13.4422    4.3812   32.1622 C   0  0  0  0  0  0  0  0  0  0  0  0
   11.8592   -3.8547   31.8620 O   0  0  0  0  0  0  0  0  0  0  0  0
    9.8173    2.5400   33.1638 C   0  0  0  0  0  0  0  0  0  0  0  0
   14.1032    1.9190   31.6495 C   0  0  0  0  0  0  0  0  0  0  0  0
   13.1379   -3.0678   33.7787 O   0  0  0  0  0  0  0  0  0  0  0  0
   10.6619   -1.2421   33.9983 C   0  0  0  0  0  0  0  0  0  0  0  0
   10.0334   -0.3936   35.0500 C   0  0  0  0  0  0  0  0  0  0  0  0
   12.9094   -2.9511   32.2956 P   0  0  0  0  0  0  0  0  0  0  0  0
   14.8211    2.4394   30.3967 C   0  0  0  0  0  0  0  0  0  0  0  0
   13.2605    2.9232   32.4130 C   0  0  0  0  0  0  0  0  0  0  0  0
   12.0831    5.0081   32.5515 C   0  0  0  0  0  0  0  0  0  0  0  0
   11.8250    2.7252   32.0319 C   0  0  0  0  0  0  0  0  0  0  0  0
   11.8048    6.2591   31.9707 O   0  0  0  0  0  0  0  0  0  0  0  0
   11.4335   -1.9252   34.9034 O   0  0  0  0  0  0  0  0  0  0  0  0
   10.7451    0.5443   32.2565 C   0  0  0  0  0  0  0  0  0  0  0  0
  1  3  1  0
  1 12  1  0
  2  6  1  0
  2 15  1  0
  2 24  1  0
  3 20  1  0
  3 21  1  0
  4 12  1  0
  4 21  1  0
  4 24  1  0
  5 10  1  0
  6 17  1  0
  7 19  1  0
  8 17  2  0
  9 15  1  0
 10 19  1  0
 10 20  1  0
 11 17  1  0
 13 18  1  0
 13 19  1  0
 14 17  1  0
 15 16  1  0
 15 23  1  0
 19 21  1  0
 20 22  1  0
M  END
$$$$
