
     RDKit          3D

 26 29  0  0  0  0  0  0  0  0999 V2000
   -3.0019    1.3873    0.3809 C   0  0  0  0  0  0  0  0  0  0  0  0
   -3.0678    0.3207   -0.7505 C   0  0  1  0  0  0  0  0  0  0  0  0
   -1.7325   -0.2151   -1.1416 N   0  0  0  0  0  0  0  0  0  0  0  0
    5.6629   -0.3707    1.9744 C   0  0  0  0  0  0  0  0  0  0  0  0
    6.8951   -0.9481    2.2967 C   0  0  0  0  0  0  0  0  0  0  0  0
    0.3378   -1.4424   -0.5648 C   0  0  0  0  0  0  0  0  0  0  0  0
   -4.3102    2.0022    0.5755 N   0  0  0  0  0  0  0  0  0  0  0  0
    1.1310   -0.5613   -1.4517 N   0  0  0  0  0  0  0  0  0  0  0  0
    3.2941   -0.1398   -0.3401 C   0  0  0  0  0  0  0  0  0  0  0  0
   -4.4174   -1.1434    0.9827 C   0  0  0  0  0  0  0  0  0  0  0  0
   -6.7098   -0.5167    1.7285 N   0  0  0  0  0  0  0  0  0  0  0  0
    5.4952    0.3029    0.7527 C   0  0  0  0  0  0  0  0  0  0  0  0
    1.9280    0.4455   -0.7136 C   0  0  0  0  0  0  0  0  0  0  0  0
   -0.9327   -0.7587   -0.0272 C   0  0  0  0  0  0  0  0  0  0  0  0
   -5.3136   -0.1034    1.7011 C   0  0  0  0  0  0  0  0  0  0  0  0
    0.2898    0.0310   -2.5116 C   0  0  0  0  0  0  0  0  0  0  0  0
   -0.9359    0.7433   -1.9308 C   0  0  0  0  0  0  0  0  0  0  0  0
    4.1597    0.8940    0.3885 C   0  0  0  0  0  0  0  0  0  0  0  0
   -6.6409    1.5560    0.7857 N   0  0  0  0  0  0  0  0  0  0  0  0
   -5.2676   -0.6172   -1.2261 O   0  0  0  0  0  0  0  0  0  0  0  0
   -4.0823   -0.8525   -0.5052 C   0  0  1  0  0  0  0  0  0  0  0  0
    7.8003   -0.2096    0.1763 C   0  0  0  0  0  0  0  0  0  0  0  0
    7.9635   -0.8658    1.3994 C   0  0  0  0  0  0  0  0  0  0  0  0
   -5.4191    1.2290    1.0332 C   0  0  0  0  0  0  0  0  0  0  0  0
   -7.4129    0.4536    1.2424 C   0  0  0  0  0  0  0  0  0  0  0  0
    6.5698    0.3692   -0.1501 C   0  0  0  0  0  0  0  0  0  0  0  0
  1  2  1  0
  1  7  1  0
  2  3  1  1
  2 21  1  0
  3 14  1  0
  3 17  1  0
  4  5  1  0
  4 12  2  0
  5 23  2  0
  6  8  1  0
  6 14  1  0
  7 24  1  0
  8 13  1  0
  8 16  1  0
  9 13  1  0
  9 18  1  0
 10 15  1  0
 10 21  1  0
 11 15  1  0
 11 25  2  0
 12 18  1  0
 12 26  1  0
 15 24  1  0
 16 17  1  0
 19 24  2  0
 19 25  1  0
 21 20  1  6
 22 23  1  0
 22 26  2  0
M  END
