
     RDKit          3D

 28 30  0  0  0  0  0  0  0  0999 V2000
   -4.9369    2.3644   -0.0238 O   0  0  0  0  0  0  0  0  0  0  0  0
   -0.5030   -0.7797   -0.8998 N   0  0  0  0  0  0  0  0  0  0  0  0
    6.6027    2.9248    2.8630 C   0  0  0  0  0  0  0  0  0  0  0  0
   -4.0882    0.2098   -1.5786 N   0  0  0  0  0  0  0  0  0  0  0  0
   -5.2945    0.2123   -0.8537 N   0  0  0  0  0  0  0  0  0  0  0  0
    4.5894    0.0048    1.6720 C   0  0  0  0  0  0  0  0  0  0  0  0
   -0.6819   -2.1421   -0.3829 C   0  0  0  0  0  0  0  0  0  0  0  0
    5.4021    2.5201    0.7539 C   0  0  0  0  0  0  0  0  0  0  0  0
    1.8406   -0.1233   -0.2009 C   0  0  1  0  0  0  0  0  0  0  0  0
    4.2056    0.4351    0.3911 C   0  0  0  0  0  0  0  0  0  0  0  0
    5.7895    2.0819    2.0262 C   0  0  0  0  0  0  0  0  0  0  0  0
    5.3807    0.8232    2.4838 C   0  0  0  0  0  0  0  0  0  0  0  0
   -5.6788    1.3469   -0.0712 C   0  0  0  0  0  0  0  0  0  0  0  0
   -1.9437   -2.2344    0.4936 C   0  0  2  0  0  0  0  0  0  0  0  0
   -2.1294   -3.5402    0.9817 O   0  0  0  0  0  0  0  0  0  0  0  0
    1.3560   -0.2502    1.1114 O   0  0  0  0  0  0  0  0  0  0  0  0
   -1.5456    0.7687   -2.3194 O   0  0  0  0  0  0  0  0  0  0  0  0
    1.2522    1.0608   -0.9566 C   0  0  2  0  0  0  0  0  0  0  0  0
   -2.9973   -0.2690   -0.7103 C   0  0  1  0  0  0  0  0  0  0  0  0
   -3.1874   -1.7468   -0.2812 C   0  0  1  0  0  0  0  0  0  0  0  0
   -6.9053    1.3319    0.6571 N   0  0  0  0  0  0  0  0  0  0  0  0
   -1.6622   -0.0748   -1.3877 C   0  0  0  0  0  0  0  0  0  0  0  0
    7.2564    3.6024    3.5358 N   0  0  0  0  0  0  0  0  0  0  0  0
   -3.4046   -2.5545   -1.4131 O   0  0  0  0  0  0  0  0  0  0  0  0
    0.2948    1.7744   -0.2253 O   0  0  0  0  0  0  0  0  0  0  0  0
    4.6109    1.7024   -0.0588 C   0  0  0  0  0  0  0  0  0  0  0  0
    3.3224   -0.4291   -0.4683 C   0  0  0  0  0  0  0  0  0  0  0  0
    0.8387   -0.3694   -1.3346 C   0  0  2  0  0  0  0  0  0  0  0  0
  1 13  2  0
  2  7  1  0
  2 22  1  0
 28  2  1  1
  3 11  1  0
  3 23  3  0
  4  5  1  0
 19  4  1  6
  5 13  1  0
  6 10  2  0
  6 12  1  0
  7 14  1  0
  8 11  1  0
  8 26  2  0
  9 16  1  1
  9 18  1  0
  9 27  1  0
  9 28  1  0
 10 26  1  0
 10 27  1  0
 11 12  2  0
 13 21  1  0
 14 15  1  6
 14 20  1  0
 17 22  2  0
 18 25  1  1
 18 28  1  0
 19 20  1  0
 19 22  1  0
 20 24  1  6
M  END
