
     RDKit          3D

 13 14  0  0  0  0  0  0  0  0999 V2000
    2.0826   -0.1500   -0.2134 C   0  0  2  0  0  0  0  0  0  0  0  0
   -1.4931   -0.3286   -1.2991 C   0  0  0  0  0  0  0  0  0  0  0  0
    0.1408   -1.7954   -0.0110 C   0  0  0  0  0  0  0  0  0  0  0  0
   -2.0200   -0.9786    1.0198 C   0  0  0  0  0  0  0  0  0  0  0  0
   -2.3187    1.3004    1.7462 C   0  0  0  0  0  0  0  0  0  0  0  0
    3.2366    0.2185   -1.0356 N   0  0  0  0  0  0  0  0  0  0  0  0
   -0.1475    0.6034    0.7164 C   0  0  1  0  0  0  0  0  0  0  0  0
    1.4071   -1.4057   -0.7965 C   0  0  0  0  0  0  0  0  0  0  0  0
   -1.1189    1.7704    0.9633 C   0  0  0  0  0  0  0  0  0  0  0  0
   -2.7004    0.0556    1.7467 N   0  0  0  0  0  0  0  0  0  0  0  0
   -2.4403   -2.1641    1.0991 O   0  0  0  0  0  0  0  0  0  0  0  0
   -0.8747   -0.6247    0.0918 C   0  0  2  0  0  0  0  0  0  0  0  0
    1.0902    1.0279   -0.0947 C   0  0  0  0  0  0  0  0  0  0  0  0
  1  6  1  6
  1  8  1  0
  1 13  1  0
 12  2  1  6
  3  8  1  0
  3 12  1  0
  4 10  1  0
  4 11  2  0
  4 12  1  0
  5  9  1  0
  5 10  2  0
  7  9  1  6
  7 12  1  0
  7 13  1  0
M  END
