
     RDKit          3D

  8  8  0  0  0  0  0  0  0  0999 V2000
    1.5173    0.6425   -0.6465 C   0  0  0  0  0  0  0  0  0  0  0  0
   -0.1369   -1.1624    0.1011 C   0  0  0  0  0  0  0  0  0  0  0  0
   -1.0701   -0.1248   -0.3753 N   0  0  0  0  0  0  0  0  0  0  0  0
    0.7193    1.4944    0.3437 C   0  0  0  0  0  0  0  0  0  0  0  0
   -2.4616   -0.5307   -0.1272 C   0  0  0  0  0  0  0  0  0  0  0  0
    2.2164   -1.3396    0.5535 O   0  0  0  0  0  0  0  0  0  0  0  0
   -0.7912    1.1750    0.2786 C   0  0  0  0  0  0  0  0  0  0  0  0
    1.2949   -0.8654   -0.3946 C   0  0  2  0  0  0  0  0  0  0  0  0
  1  4  1  0
  1  8  1  0
  2  3  1  0
  2  8  1  0
  3  5  1  0
  3  7  1  0
  4  7  1  0
  8  6  1  1
M  END
