
     RDKit          3D

 20 22  0  0  0  0  0  0  0  0999 V2000
   -1.3160    1.7803    1.3163 C   0  0  0  0  0  0  0  0  0  0  0  0
    2.6919   -0.2993    0.6226 C   0  0  0  0  0  0  0  0  0  0  0  0
   -1.8594   -2.7503   -0.4283 C   0  0  0  0  0  0  0  0  0  0  0  0
   -0.1557   -0.5174   -0.5918 C   0  0  0  0  0  0  0  0  0  0  0  0
   -3.1365    2.7237    0.6653 N   0  0  0  0  0  0  0  0  0  0  0  0
   -3.0691    1.5697    0.0220 N   0  0  0  0  0  0  0  0  0  0  0  0
   -3.9363   -1.3633    0.7044 Cl  0  0  0  0  0  0  0  0  0  0  0  0
    0.3419    1.6564   -1.3867 O   0  0  0  0  0  0  0  0  0  0  0  0
   -2.3197   -1.4932    0.0018 C   0  0  0  0  0  0  0  0  0  0  0  0
   -1.4702   -0.3640   -0.0806 C   0  0  0  0  0  0  0  0  0  0  0  0
   -1.9402    0.9532    0.4076 C   0  0  0  0  0  0  0  0  0  0  0  0
   -0.5656   -2.8873   -0.9310 C   0  0  0  0  0  0  0  0  0  0  0  0
   -2.8806   -4.1808   -0.3390 Cl  0  0  0  0  0  0  0  0  0  0  0  0
    4.2063    1.1643    0.2483 C   0  0  0  0  0  0  0  0  0  0  0  0
    2.1307    0.6261   -0.2375 C   0  0  0  0  0  0  0  0  0  0  0  0
    0.2787   -1.7831   -1.0129 C   0  0  0  0  0  0  0  0  0  0  0  0
    3.9296    0.0503    0.8879 O   0  0  0  0  0  0  0  0  0  0  0  0
    3.1047    1.5745   -0.4735 C   0  0  0  0  0  0  0  0  0  0  0  0
    0.7537    0.6382   -0.7676 C   0  0  0  0  0  0  0  0  0  0  0  0
   -2.0856    2.8773    1.4597 N   0  0  0  0  0  0  0  0  0  0  0  0
  1 11  2  0
  1 20  1  0
  2 15  2  0
  2 17  1  0
  3  9  2  0
  3 12  1  0
  3 13  1  0
  4 10  2  0
  4 16  1  0
  4 19  1  0
  5  6  1  0
  5 20  2  0
  6 11  1  0
  7  9  1  0
  8 19  2  0
  9 10  1  0
 10 11  1  0
 12 16  2  0
 14 17  1  0
 14 18  2  0
 15 18  1  0
 15 19  1  0
M  END
