
     RDKit          3D

 10 10  0  0  0  0  0  0  0  0999 V2000
   -1.6818    0.7884   -0.2887 C   0  0  0  0  0  0  0  0  0  0  0  0
    2.3902   -0.5105    0.0993 C   0  0  0  0  0  0  0  0  0  0  0  0
    2.0487    0.8277    0.2879 C   0  0  0  0  0  0  0  0  0  0  0  0
   -0.9396   -2.0762   -0.5066 N   0  0  0  0  0  0  0  0  0  0  0  0
    0.0531   -1.0646   -0.2860 C   0  0  0  0  0  0  0  0  0  0  0  0
   -2.3873    0.3623   -1.2418 O   0  0  0  0  0  0  0  0  0  0  0  0
    0.7169    1.2324    0.1799 C   0  0  0  0  0  0  0  0  0  0  0  0
   -2.2230    1.7723    0.5949 N   0  0  0  0  0  0  0  0  0  0  0  0
    1.3995   -1.4512   -0.1858 C   0  0  0  0  0  0  0  0  0  0  0  0
   -0.2945    0.3006   -0.1169 C   0  0  0  0  0  0  0  0  0  0  0  0
  1  6  2  0
  1  8  1  0
  1 10  1  0
  2  3  2  0
  2  9  1  0
  3  7  1  0
  4  5  1  0
  5  9  2  0
  5 10  1  0
  7 10  2  0
M  END
