
     RDKit          3D

 28 31  0  0  0  0  0  0  0  0999 V2000
    9.5082   11.7490   32.5015 N   0  0  0  0  0  0  0  0  0  0  0  0
   10.7218   16.6603   37.4896 N   0  0  0  0  0  0  0  0  0  0  0  0
   13.9461   14.8112   37.9275 N   0  0  0  0  0  0  0  0  0  0  0  0
   11.7371   12.9194   36.2482 C   0  0  0  0  0  0  0  0  0  0  0  0
   10.5634   13.7168   34.2459 C   0  0  0  0  0  0  0  0  0  0  0  0
   16.9431   13.2054   33.9366 C   0  0  0  0  0  0  0  0  0  0  0  0
   11.5348   15.2725   32.9373 O   0  0  0  0  0  0  0  0  0  0  0  0
   12.2452   16.8600   37.6023 C   0  0  0  0  0  0  0  0  0  0  0  0
   16.3256   15.3635   37.7322 C   0  0  0  0  0  0  0  0  0  0  0  0
    8.9835   12.7932   32.5561 N   0  0  0  0  0  0  0  0  0  0  0  0
   11.6388   14.6138   33.8977 C   0  0  0  0  0  0  0  0  0  0  0  0
   15.3128   14.6214   38.4328 C   0  0  0  0  0  0  0  0  0  0  0  0
   12.8054   13.7131   35.9360 C   0  0  0  0  0  0  0  0  0  0  0  0
   10.5850   12.9448   35.4286 C   0  0  0  0  0  0  0  0  0  0  0  0
   12.5735   15.3536   39.5129 O   0  0  0  0  0  0  0  0  0  0  0  0
   17.8186   14.5994   35.8618 C   0  0  0  0  0  0  0  0  0  0  0  0
    8.1461   11.8293   30.7244 C   0  0  0  0  0  0  0  0  0  0  0  0
   17.9836   13.9252   34.5967 C   0  0  0  0  0  0  0  0  0  0  0  0
   17.4092   14.4777   38.3851 O   0  0  0  0  0  0  0  0  0  0  0  0
    9.2299   13.8323   33.5370 C   0  0  0  0  0  0  0  0  0  0  0  0
   12.8404   14.5515   34.7804 C   0  0  0  0  0  0  0  0  0  0  0  0
   12.9887   15.5406   38.4339 C   0  0  0  0  0  0  0  0  0  0  0  0
    8.1100   12.9702   31.5940 C   0  0  0  0  0  0  0  0  0  0  0  0
   15.7028   13.1796   34.5852 C   0  0  0  0  0  0  0  0  0  0  0  0
   15.4278   13.9368   35.7572 C   0  0  0  0  0  0  0  0  0  0  0  0
   14.1295   13.9727   36.6097 C   0  0  0  0  0  0  0  0  0  0  0  0
    9.0484   11.0168   31.3575 C   0  0  0  0  0  0  0  0  0  0  0  0
   16.5244   14.5986   36.4133 C   0  0  0  0  0  0  0  0  0  0  0  0
  1 10  4  0
  1 27  4  0
  2  8  1  0
  3 12  1  0
  3 22  1  0
  3 26  1  0
  4 13  4  0
  4 14  4  0
  5 11  4  0
  5 14  4  0
  5 20  1  0
  6 18  4  0
  6 24  4  0
  7 11  2  0
  8 22  1  0
  9 12  1  0
  9 19  1  0
  9 28  1  0
 10 20  1  0
 10 23  4  0
 11 21  4  0
 13 21  4  0
 13 26  1  0
 15 22  2  0
 16 18  4  0
 16 28  4  0
 17 23  4  0
 17 27  4  0
 24 25  4  0
 25 26  1  0
 25 28  4  0
M  END
$$$$
