
     RDKit          3D

 26 29  0  0  0  0  0  0  0  0999 V2000
   11.2100   16.3338   38.9496 C   0  0  0  0  0  0  0  0  0  0  0  0
   18.7127   14.0804   34.9187 F   0  0  0  0  0  0  0  0  0  0  0  0
   10.3512   13.5394   34.8293 C   0  0  0  0  0  0  0  0  0  0  0  0
   14.6340   14.4446   35.3833 C   0  0  0  0  0  0  0  0  0  0  0  0
   15.4736   15.3889   35.9773 C   0  0  0  0  0  0  0  0  0  0  0  0
   13.5660   15.0969   38.3064 N   0  0  0  0  0  0  0  0  0  0  0  0
   13.2051   14.5915   35.2360 C   0  0  0  0  0  0  0  0  0  0  0  0
   17.3670   14.2543   35.0772 C   0  0  0  0  0  0  0  0  0  0  0  0
   16.5575   13.3372   34.4673 C   0  0  0  0  0  0  0  0  0  0  0  0
   10.0014   11.4318   33.8048 C   0  0  0  0  0  0  0  0  0  0  0  0
   12.8825   15.0348   34.1205 O   0  0  0  0  0  0  0  0  0  0  0  0
   13.4785   15.7616   39.4210 C   0  0  0  0  0  0  0  0  0  0  0  0
   16.8238   15.3239   35.8794 C   0  0  0  0  0  0  0  0  0  0  0  0
   12.2720   16.3771   39.8193 C   0  0  0  0  0  0  0  0  0  0  0  0
   12.4103   15.0068   37.4854 C   0  0  0  0  0  0  0  0  0  0  0  0
   10.9817   14.3426   35.9999 C   0  0  0  0  0  0  0  0  0  0  0  0
   15.2070   13.4704   34.5237 C   0  0  0  0  0  0  0  0  0  0  0  0
    8.6503   11.1290   31.7549 C   0  0  0  0  0  0  0  0  0  0  0  0
   11.2544   15.6312   37.7560 C   0  0  0  0  0  0  0  0  0  0  0  0
   12.3375   14.2144   36.2976 N   0  0  0  0  0  0  0  0  0  0  0  0
    9.2692   11.9995   32.7921 C   0  0  0  0  0  0  0  0  0  0  0  0
   10.5298   12.1937   34.8038 C   0  0  0  0  0  0  0  0  0  0  0  0
   10.3744   15.2718   36.8276 N   0  0  0  0  0  0  0  0  0  0  0  0
    7.8365   11.7298   30.7515 N   0  0  0  0  0  0  0  0  0  0  0  0
    9.6383   14.1324   33.8145 C   0  0  0  0  0  0  0  0  0  0  0  0
    9.1229   13.3519   32.8251 C   0  0  0  0  0  0  0  0  0  0  0  0
  1 14  1  0
  1 19  2  0
  2  8  1  0
  3 16  1  0
  3 22  1  0
  3 25  2  0
  4  5  2  0
  4  7  1  0
  4 17  1  0
  5 13  1  0
  6 12  1  0
  6 15  2  0
  7 11  2  0
  7 20  1  0
  8  9  1  0
  8 13  2  0
  9 17  2  0
 10 21  1  0
 10 22  2  0
 12 14  2  0
 15 19  1  0
 15 20  1  0
 16 20  1  0
 16 23  2  0
 18 21  1  0
 18 24  1  0
 19 23  1  0
 21 26  2  0
 25 26  1  0
M  END
$$$$
