
     RDKit          3D

 22 23  0  0  0  0  0  0  0  0999 V2000
   10.9515   14.0544   35.1490 C   0  0  0  0  0  0  0  0  0  0  0  0
   12.9169   15.3162   33.6056 O   0  0  0  0  0  0  0  0  0  0  0  0
   17.4780   14.3143   34.9687 C   0  0  0  0  0  0  0  0  0  0  0  0
   15.4698   15.5585   35.3094 C   0  0  0  0  0  0  0  0  0  0  0  0
   13.3420   15.5044   38.8332 C   0  0  0  0  0  0  0  0  0  0  0  0
   16.7431   13.2900   34.4395 C   0  0  0  0  0  0  0  0  0  0  0  0
    8.6730   12.2165   33.1417 C   0  0  0  0  0  0  0  0  0  0  0  0
    8.0795   12.1656   30.8216 N   0  0  0  0  0  0  0  0  0  0  0  0
   12.3379   14.2907   35.5764 N   0  0  0  0  0  0  0  0  0  0  0  0
   12.4028   15.0021   36.7735 C   0  0  0  0  0  0  0  0  0  0  0  0
   14.7305   14.4946   34.8009 C   0  0  0  0  0  0  0  0  0  0  0  0
   13.2586   14.6618   34.6226 C   0  0  0  0  0  0  0  0  0  0  0  0
    8.7341   11.5874   31.7918 C   0  0  0  0  0  0  0  0  0  0  0  0
   11.6168   16.8592   38.0455 N   0  0  0  0  0  0  0  0  0  0  0  0
   10.8058   12.8322   34.1898 C   0  0  0  0  0  0  0  0  0  0  0  0
   13.3215   14.6993   37.7313 C   0  0  0  0  0  0  0  0  0  0  0  0
   16.8479   15.4600   35.3907 C   0  0  0  0  0  0  0  0  0  0  0  0
   12.4908   16.5481   38.9535 C   0  0  0  0  0  0  0  0  0  0  0  0
    9.7748   13.2546   33.1662 C   0  0  0  0  0  0  0  0  0  0  0  0
    9.3800   10.6181   31.4830 O   0  0  0  0  0  0  0  0  0  0  0  0
   11.6035   16.0933   36.9700 C   0  0  0  0  0  0  0  0  0  0  0  0
   15.3629   13.3448   34.3969 C   0  0  0  0  0  0  0  0  0  0  0  0
  1  9  1  0
  1 15  1  0
  2 12  2  0
  3  6  2  0
  3 17  1  0
  4 11  1  0
  4 17  2  0
  5 16  1  0
  5 18  2  0
  6 22  1  0
  7 13  1  0
  7 19  1  0
  8 13  1  0
  9 10  1  0
  9 12  1  0
 10 16  2  0
 10 21  1  0
 11 12  1  0
 11 22  2  0
 13 20  2  0
 14 18  1  0
 14 21  2  0
 15 19  1  0
M  END
$$$$
