
     RDKit          3D

 12 10  0  0  0  0  0  0  0  0999 V2000
   -1.3968  107.4829   21.2237 C   0  0  0  0  0  0  0  0  0  0  0  0
    6.4394  107.5975   24.7364 O   0  0  0  0  0  0  0  0  0  0  0  0
    8.6948  109.2646   24.5064 O   0  0  0  0  0  0  0  0  0  0  0  0
    5.5427  109.0659   26.3761 C   0  0  0  0  0  0  0  0  0  0  0  0
   -1.7823  107.9272   19.9593 C   0  0  0  0  0  0  0  0  0  0  0  0
   -0.0428  107.2418   21.3677 O   0  0  0  0  0  0  0  0  0  0  0  0
   -0.8268  108.1784   18.8704 C   0  0  0  0  0  0  0  0  0  0  0  0
    6.3581  108.9436   25.1319 C   0  0  0  0  0  0  0  0  0  0  0  0
    1.5911  106.6163   23.1685 C   0  0  0  0  0  0  0  0  0  0  0  0
    7.7013  109.5611   25.4595 C   0  0  0  0  0  0  0  0  0  0  0  0
    0.4095  107.1195   22.4324 C   0  0  0  0  0  0  0  0  0  0  0  0
   -2.1966  108.2052   22.2959 C   0  0  0  0  0  0  0  0  0  0  0  0
  1  5  1  0
  1  6  1  0
  1 12  1  0
  2  8  1  0
  3 10  1  0
  4  8  1  0
  5  7  1  0
  6 11  1  0
  8 10  1  0
  9 11  1  0
M  END
$$$$
