
     RDKit          3D

 19 21  0  0  0  0  0  0  0  0999 V2000
   -0.3748    0.9449    0.0076 C   0  0  1  0  0  0  0  0  0  0  0  0
   -1.5806   -1.0459   -0.6800 O   0  0  0  0  0  0  0  0  0  0  0  0
    1.9489    0.7058    0.6527 O   0  0  0  0  0  0  0  0  0  0  0  0
    2.1370   -0.4168   -0.2202 C   0  0  1  0  0  0  0  0  0  0  0  0
    0.6323    0.7443    1.1990 C   0  0  2  0  0  0  0  0  0  0  0  0
   -2.4313   -0.3013    0.1626 C   0  0  1  0  0  0  0  0  0  0  0  0
   -1.8425    1.0869    0.3911 C   0  0  1  0  0  0  0  0  0  0  0  0
    0.0274    2.0765   -0.7334 O   0  0  0  0  0  0  0  0  0  0  0  0
   -3.6954   -0.2064   -0.4381 O   0  0  0  0  0  0  0  0  0  0  0  0
    0.3734   -0.5780    1.9809 C   0  0  1  0  0  0  0  0  0  0  0  0
   -0.3640   -0.3433   -0.8746 C   0  0  1  0  0  0  0  0  0  0  0  0
   -2.0098    1.5133    1.7190 O   0  0  0  0  0  0  0  0  0  0  0  0
   -0.2966   -0.0439   -2.3896 C   0  0  0  0  0  0  0  0  0  0  0  0
    0.8283   -1.2590   -0.4123 C   0  0  2  0  0  0  0  0  0  0  0  0
    3.0948   -0.8331   -2.3730 O   0  0  0  0  0  0  0  0  0  0  0  0
    0.5067   -1.7846    1.0086 C   0  0  0  0  0  0  0  0  0  0  0  0
    2.9740    1.3765   -1.7627 O   0  0  0  0  0  0  0  0  0  0  0  0
    2.7551    0.0243   -1.5139 C   0  0  0  0  0  0  0  0  0  0  0  0
    1.3121   -0.6848    3.0197 O   0  0  0  0  0  0  0  0  0  0  0  0
  1  5  1  0
  1  7  1  0
  1  8  1  6
  1 11  1  0
  2  6  1  0
  2 11  1  0
  3  4  1  0
  5  3  1  6
  4 14  1  0
  4 18  1  6
  5 10  1  0
  6  7  1  0
  6  9  1  6
  7 12  1  1
 10 16  1  0
 10 19  1  1
 11 13  1  6
 11 14  1  0
 14 16  1  1
 15 18  2  0
 17 18  1  0
M  END
