
     RDKit          3D

 18 20  0  0  0  0  0  0  0  0999 V2000
   -2.1645   -2.0629    1.3355 O   0  0  0  0  0  0  0  0  0  0  0  0
   -0.9304    0.4744    0.1550 C   0  0  2  0  0  0  0  0  0  0  0  0
   -0.0778    1.2155   -0.9500 C   0  0  1  0  0  0  0  0  0  0  0  0
    1.3735    0.5695    0.7486 C   0  0  2  0  0  0  0  0  0  0  0  0
   -0.1476   -0.5068    2.3226 O   0  0  0  0  0  0  0  0  0  0  0  0
   -0.0138    0.5640    1.4209 C   0  0  0  0  0  0  0  0  0  0  0  0
    1.1984    1.7138   -0.2547 C   0  0  1  0  0  0  0  0  0  0  0  0
    0.3505    0.2339   -1.8825 O   0  0  0  0  0  0  0  0  0  0  0  0
    0.3979   -0.9407   -1.1060 C   0  0  2  0  0  0  0  0  0  0  0  0
   -0.4351   -3.2596    0.4213 O   0  0  0  0  0  0  0  0  0  0  0  0
   -0.9850   -0.9519   -0.4432 C   0  0  1  0  0  0  0  0  0  0  0  0
   -1.2096   -2.1059    0.5124 C   0  0  0  0  0  0  0  0  0  0  0  0
    2.2949    1.7995   -1.1302 O   0  0  0  0  0  0  0  0  0  0  0  0
   -2.1059   -1.0504   -1.5107 C   0  0  0  0  0  0  0  0  0  0  0  0
   -0.8002    2.2446   -1.5725 O   0  0  0  0  0  0  0  0  0  0  0  0
    1.5651   -0.7838   -0.0448 C   0  0  0  0  0  0  0  0  0  0  0  0
   -0.2549    1.7744    2.1043 O   0  0  0  0  0  0  0  0  0  0  0  0
    2.4330    0.7806    1.6499 O   0  0  0  0  0  0  0  0  0  0  0  0
  1 12  2  0
  2  3  1  0
  2  6  1  1
  2 11  1  0
  3  7  1  0
  3  8  1  0
  3 15  1  6
  4  6  1  0
  4  7  1  0
  4 16  1  0
  4 18  1  1
  5  6  1  0
  6 17  1  0
  7 13  1  6
  8  9  1  0
  9 11  1  0
  9 16  1  1
 10 12  1  0
 11 12  1  0
 11 14  1  6
M  END
