
     RDKit          3D

 17 18  0  0  0  0  0  0  0  0999 V2000
   -1.4909   -2.2721   -0.2534 C   0  0  0  0  0  0  0  0  0  0  0  0
   -1.9658    0.1220    0.3285 C   0  0  0  0  0  0  0  0  0  0  0  0
   -1.8688   -3.5804    0.0401 O   0  0  0  0  0  0  0  0  0  0  0  0
    2.2113   -0.7275    0.7452 C   0  0  0  0  0  0  0  0  0  0  0  0
    3.5958   -0.5461    0.8801 O   0  0  0  0  0  0  0  0  0  0  0  0
   -0.0802    1.7390   -0.1146 C   0  0  0  0  0  0  0  0  0  0  0  0
    1.1975    2.0323   -0.7118 N   0  0  0  0  0  0  0  0  0  0  0  0
   -0.7898    2.8558    0.5584 C   0  0  0  0  0  0  0  0  0  0  0  0
   -0.5759    0.4709   -0.1818 C   0  0  0  0  0  0  0  0  0  0  0  0
    3.2079    1.2554   -1.6074 O   0  0  0  0  0  0  0  0  0  0  0  0
    0.2316   -0.6080   -0.9088 C   0  0  2  0  0  0  0  0  0  0  0  0
   -0.2168   -2.0061   -0.5442 C   0  0  0  0  0  0  0  0  0  0  0  0
   -0.5510    4.1647    0.1502 O   0  0  0  0  0  0  0  0  0  0  0  0
   -1.5653    2.6470    1.5298 O   0  0  0  0  0  0  0  0  0  0  0  0
    1.7581   -0.4298   -0.7030 C   0  0  1  0  0  0  0  0  0  0  0  0
    2.1067    0.9847   -1.0581 C   0  0  0  0  0  0  0  0  0  0  0  0
   -2.5141   -1.1735   -0.2844 C   0  0  0  0  0  0  0  0  0  0  0  0
  1  3  1  0
  1 12  2  0
  1 17  1  0
  2  9  1  0
  2 17  1  0
  4  5  1  0
 15  4  1  1
  6  7  1  0
  6  8  1  0
  6  9  2  0
  7 16  1  0
  8 13  1  0
  8 14  2  0
  9 11  1  0
 10 16  2  0
 11 12  1  1
 11 15  1  0
 15 16  1  0
M  END
