
     RDKit          3D

  5  4  0  0  0  0  0  0  0  0999 V2000
   -0.8171   -0.1220   -0.0501 C   0  0  0  0  0  0  0  0  0  0  0  0
    1.1505   -1.1289   -0.9570 O   0  0  0  0  0  0  0  0  0  0  0  0
    0.6647   -0.2455   -0.2013 C   0  0  0  0  0  0  0  0  0  0  0  0
   -1.3186    0.8022   -0.9757 O   0  0  0  0  0  0  0  0  0  0  0  0
    1.5050    0.6463    0.4575 O   0  0  0  0  0  0  0  0  0  0  0  0
  1  3  1  0
  1  4  1  0
  2  3  2  0
  3  5  1  0
M  END
