
     RDKit          3D

  7  6  0  0  0  0  0  0  0  0999 V2000
   -0.3128    1.6520    0.4391 C   0  0  0  0  0  0  0  0  0  0  0  0
   -0.1885    0.1875    0.4228 C   0  0  1  0  0  0  0  0  0  0  0  0
    1.3771    0.1064   -1.3952 O   0  0  0  0  0  0  0  0  0  0  0  0
   -1.3641   -0.4383   -0.3292 C   0  0  0  0  0  0  0  0  0  0  0  0
    1.1177   -0.2078   -0.2014 C   0  0  0  0  0  0  0  0  0  0  0  0
   -0.4109    2.8051    0.4524 N   0  0  0  0  0  0  0  0  0  0  0  0
    2.0474   -0.9287    0.5417 O   0  0  0  0  0  0  0  0  0  0  0  0
  1  2  1  0
  1  6  3  0
  2  4  1  6
  2  5  1  0
  3  5  2  0
  5  7  1  0
M  END
