
     RDKit          3D

 22 26  0  0  0  0  0  0  0  0999 V2000
   -4.3159  -15.1501  -12.4112 O   0  0  0  0  0  0  0  0  0  0  0  0
   -6.6065  -17.6897   -9.1631 O   0  0  0  0  0  0  0  0  0  0  0  0
   -2.1040  -17.7445  -10.6124 C   0  0  0  0  0  0  0  0  0  0  0  0
   -1.6342  -18.4308  -13.2698 C   0  0  0  0  0  0  0  0  0  0  0  0
   -3.7795  -16.7312   -8.9180 C   0  0  0  0  0  0  0  0  0  0  0  0
   -6.4676  -16.3432   -8.9409 C   0  0  0  0  0  0  0  0  0  0  0  0
   -1.1579  -18.6910  -10.9476 N   0  0  0  0  0  0  0  0  0  0  0  0
   -3.3615  -15.9561  -13.8868 C   0  0  0  0  0  0  0  0  0  0  0  0
   -0.9342  -19.1662  -12.2090 C   0  0  0  0  0  0  0  0  0  0  0  0
   -3.8252  -15.9474  -11.3266 C   0  0  0  0  0  0  0  0  0  0  0  0
   -2.3076  -18.2321  -15.8824 Cl  0  0  0  0  0  0  0  0  0  0  0  0
   -4.3532  -15.9461   -9.9185 C   0  0  0  0  0  0  0  0  0  0  0  0
   -2.7852  -16.9417  -11.6366 C   0  0  0  0  0  0  0  0  0  0  0  0
   -2.5300  -17.5532   -9.2207 C   0  0  0  0  0  0  0  0  0  0  0  0
   -7.7927  -15.6017   -8.6402 O   0  0  0  0  0  0  0  0  0  0  0  0
   -0.1460  -20.2471  -12.4194 C   0  0  0  0  0  0  0  0  0  0  0  0
   -0.7589  -20.0458  -14.7383 C   0  0  0  0  0  0  0  0  0  0  0  0
   -1.5516  -18.9306  -14.5453 C   0  0  0  0  0  0  0  0  0  0  0  0
   -0.0482  -20.7810  -13.8086 C   0  0  0  0  0  0  0  0  0  0  0  0
   -5.6161  -15.4950   -9.8039 O   0  0  0  0  0  0  0  0  0  0  0  0
   -2.7028  -16.9940  -13.0084 C   0  0  0  0  0  0  0  0  0  0  0  0
   -2.0974  -17.7418  -10.6974 C   0  0  0  0  0  0  0  0  0  0  0  0
  1 10  1  0
  2  6  1  0
  3  7  4  0
  3 13  4  0
  3 14  4  0
  3 22  4  0
  4  9  4  0
  4 18  4  0
  5 12  4  0
  5 14  4  0
  6 15  1  0
  6 20  1  0
  7  9  4  0
  7 22  4  0
  8 21  1  0
  9 16  4  0
 10 12  4  0
 10 13  4  0
 11 18  1  0
 12 20  1  0
 13 21  4  0
 13 22  4  0
 14 22  4  0
 16 19  4  0
 17 18  4  0
 17 19  4  0
M  END
$$$$
