
     RDKit          3D

 20 22  0  0  0  0  0  0  0  0999 V2000
   -2.4709  -17.7878  -12.9007 C   0  0  0  0  0  0  0  0  0  0  0  0
   -3.5901  -16.7874  -12.7742 C   0  0  0  0  0  0  0  0  0  0  0  0
   -0.6825  -18.9306  -11.7713 C   0  0  0  0  0  0  0  0  0  0  0  0
   -0.9668  -19.4994  -14.0361 C   0  0  0  0  0  0  0  0  0  0  0  0
   -4.9107  -16.5071   -8.7856 C   0  0  0  0  0  0  0  0  0  0  0  0
   -3.2168  -15.4549  -13.0651 O   0  0  0  0  0  0  0  0  0  0  0  0
   -1.7123  -18.0202  -11.7701 C   0  0  0  0  0  0  0  0  0  0  0  0
   -5.7696  -16.1695   -9.8227 C   0  0  0  0  0  0  0  0  0  0  0  0
   -3.6263  -16.9176   -9.0531 C   0  0  0  0  0  0  0  0  0  0  0  0
   -1.9137  -17.3598  -10.6048 O   0  0  0  0  0  0  0  0  0  0  0  0
   -0.2831  -21.6384  -14.9923 O   0  0  0  0  0  0  0  0  0  0  0  0
   -7.0910  -15.7607   -9.5945 O   0  0  0  0  0  0  0  0  0  0  0  0
   -2.0852  -18.5225  -14.0751 C   0  0  0  0  0  0  0  0  0  0  0  0
   -0.3332  -19.6958  -12.8493 C   0  0  0  0  0  0  0  0  0  0  0  0
   -3.1928  -16.9894  -10.3607 C   0  0  0  0  0  0  0  0  0  0  0  0
   -5.2984  -16.2499  -11.1286 C   0  0  0  0  0  0  0  0  0  0  0  0
   -4.6080  -17.0031  -13.6721 F   0  0  0  0  0  0  0  0  0  0  0  0
   -4.0251  -16.6749  -11.3976 C   0  0  0  0  0  0  0  0  0  0  0  0
   -7.2378  -14.9912   -8.4048 C   0  0  0  0  0  0  0  0  0  0  0  0
   -0.5042  -20.2881  -15.2883 C   0  0  0  0  0  0  0  0  0  0  0  0
  1  2  1  0
  1  7  2  0
  1 13  1  0
  2  6  1  0
  2 17  1  0
  2 18  1  0
  3  7  1  0
  3 14  2  0
  4 13  2  0
  4 14  1  0
  4 20  1  0
  5  8  1  0
  5  9  2  0
  7 10  1  0
  8 12  1  0
  8 16  2  0
  9 15  1  0
 10 15  1  0
 11 20  1  0
 12 19  1  0
 15 18  2  0
 16 18  1  0
M  END
$$$$
