
     RDKit          3D

 19 21  0  0  0  0  0  0  0  0999 V2000
   -1.9946  -17.6744  -11.9372 N   0  0  0  0  0  0  0  0  0  0  0  0
   -0.2429  -20.0487  -14.4045 C   0  0  0  0  0  0  0  0  0  0  0  0
   -4.9987  -15.8652  -10.9062 C   0  0  0  0  0  0  0  0  0  0  0  0
   -4.7974  -17.9613   -9.6297 C   0  0  0  0  0  0  0  0  0  0  0  0
   -3.2840  -15.2191  -12.9561 Cl  0  0  0  0  0  0  0  0  0  0  0  0
   -6.6600  -16.2675   -9.2821 C   0  0  0  0  0  0  0  0  0  0  0  0
   -5.4527  -16.7606   -9.9237 C   0  0  0  0  0  0  0  0  0  0  0  0
   -3.8570  -16.1954  -11.6157 C   0  0  0  0  0  0  0  0  0  0  0  0
   -3.6421  -18.2883  -10.3427 C   0  0  0  0  0  0  0  0  0  0  0  0
    0.2243  -19.9527  -11.6729 Cl  0  0  0  0  0  0  0  0  0  0  0  0
   -0.5807  -19.4085  -13.1544 C   0  0  0  0  0  0  0  0  0  0  0  0
   -1.5637  -18.3556  -13.1295 C   0  0  0  0  0  0  0  0  0  0  0  0
   -7.1370  -14.9823   -9.7794 C   0  0  0  0  0  0  0  0  0  0  0  0
   -1.8578  -18.6094  -15.4988 C   0  0  0  0  0  0  0  0  0  0  0  0
   -0.9013  -19.6161  -15.5444 C   0  0  0  0  0  0  0  0  0  0  0  0
   -6.0962  -14.5307  -11.0379 S   0  0  0  0  0  0  0  0  0  0  0  0
   -2.7429  -19.8439  -10.0815 Cl  0  0  0  0  0  0  0  0  0  0  0  0
   -3.1486  -17.4273  -11.3548 C   0  0  0  0  0  0  0  0  0  0  0  0
   -2.1841  -17.9766  -14.3056 C   0  0  0  0  0  0  0  0  0  0  0  0
  1 12  1  0
  1 18  1  0
  2 11  2  0
  2 15  1  0
  3  7  2  0
  3  8  1  0
  3 16  1  0
  4  7  1  0
  4  9  2  0
  5  8  1  0
  6  7  1  0
  6 13  1  0
  8 18  2  0
  9 17  1  0
  9 18  1  0
 10 11  1  0
 11 12  1  0
 12 19  2  0
 13 16  1  0
 14 15  2  0
 14 19  1  0
M  END
$$$$
