
     RDKit          3D

 19 20  0  0  0  0  0  0  0  0999 V2000
   10.1422    9.1390   34.1474 C   0  0  0  0  0  0  0  0  0  0  0  0
    8.5936   10.9733   34.4335 C   0  0  0  0  0  0  0  0  0  0  0  0
   12.4821    9.2764   34.9584 N   0  0  0  0  0  0  0  0  0  0  0  0
   11.7558    7.0782   35.3008 O   0  0  0  0  0  0  0  0  0  0  0  0
   10.8624   11.1464   35.2614 C   0  0  0  0  0  0  0  0  0  0  0  0
   13.7875   11.1970   34.1460 C   0  0  0  0  0  0  0  0  0  0  0  0
   14.4673   10.0694   36.1744 C   0  0  0  0  0  0  0  0  0  0  0  0
    9.2798   12.9396   35.5289 O   0  0  0  0  0  0  0  0  0  0  0  0
   14.8645   12.0755   34.2758 C   0  0  0  0  0  0  0  0  0  0  0  0
   16.7702   12.8254   35.4382 O   0  0  0  0  0  0  0  0  0  0  0  0
   14.0113    5.9431   34.2868 N   0  0  0  0  0  0  0  0  0  0  0  0
    9.5903   11.6898   35.0780 C   0  0  0  0  0  0  0  0  0  0  0  0
   14.0776    7.3473   34.7435 C   0  0  0  0  0  0  0  0  0  0  0  0
    8.8688    9.6923   33.9689 C   0  0  0  0  0  0  0  0  0  0  0  0
   13.5794   10.1822   35.0939 C   0  0  0  0  0  0  0  0  0  0  0  0
   15.7341   11.9450   35.3513 C   0  0  0  0  0  0  0  0  0  0  0  0
   15.5452   10.9502   36.3043 C   0  0  0  0  0  0  0  0  0  0  0  0
   12.6591    7.8830   35.0435 C   0  0  0  0  0  0  0  0  0  0  0  0
   11.1676    9.8542   34.7898 C   0  0  0  0  0  0  0  0  0  0  0  0
  1 14  1  0
  1 19  2  0
  2 12  1  0
  2 14  2  0
  3 15  1  0
  3 18  1  0
  3 19  1  0
  4 18  2  0
  5 12  2  0
  5 19  1  0
  6  9  2  0
  6 15  1  0
  7 15  2  0
  7 17  1  0
  8 12  1  0
  9 16  1  0
 10 16  1  0
 11 13  1  0
 13 18  1  0
 16 17  2  0
M  END
$$$$
