
     RDKit          3D

 29 34  0  0  0  0  0  0  0  0999 V2000
   24.8405   13.1082   19.0899 C   0  0  0  0  0  0  0  0  0  0  0  0
   29.8348   13.9321   18.9319 C   0  0  1  0  0  0  0  0  0  0  0  0
   26.7050   15.6565   24.0540 C   0  0  0  0  0  0  0  0  0  0  0  0
   22.7594   12.8532   19.8240 O   0  0  0  0  0  0  0  0  0  0  0  0
   28.5953   13.0651   18.8248 C   0  0  2  0  0  0  0  0  0  0  0  0
   29.8891   14.8810   17.7606 C   0  0  0  0  0  0  0  0  0  0  0  0
   28.4247   12.2116   17.6187 C   0  0  0  0  0  0  0  0  0  0  0  0
   29.0382   16.3528   22.6763 C   0  0  0  0  0  0  0  0  0  0  0  0
   23.2866   13.9422   22.0547 C   0  0  0  0  0  0  0  0  0  0  0  0
   27.9842   15.4895   22.1300 C   0  0  0  0  0  0  0  0  0  0  0  0
   24.7560   13.6769   20.3834 C   0  0  0  0  0  0  0  0  0  0  0  0
   29.6163   11.3640   17.3244 C   0  0  0  0  0  0  0  0  0  0  0  0
   24.4405   14.1950   22.8961 C   0  0  0  0  0  0  0  0  0  0  0  0
   32.1667   13.4870   18.9842 O   0  0  0  0  0  0  0  0  0  0  0  0
   27.1348   14.3823   20.4226 C   0  0  0  0  0  0  0  0  0  0  0  0
   23.5478   13.5184   20.7966 C   0  0  0  0  0  0  0  0  0  0  0  0
   26.7610   15.2911   22.7286 C   0  0  0  0  0  0  0  0  0  0  0  0
   29.6788   14.8051   20.3035 C   0  0  0  0  0  0  0  0  0  0  0  0
   25.8640   14.2105   21.0871 C   0  0  0  0  0  0  0  0  0  0  0  0
   30.9800   11.9783   17.6240 C   0  0  0  0  0  0  0  0  0  0  0  0
   25.6139   14.7796   22.3288 C   0  0  0  0  0  0  0  0  0  0  0  0
   30.9867   12.9089   18.9037 C   0  0  2  0  0  0  0  0  0  0  0  0
   26.0047   13.1241   18.5340 C   0  0  0  0  0  0  0  0  0  0  0  0
   27.2457   13.6738   19.1816 C   0  0  2  0  0  0  0  0  0  0  0  0
   23.6866   12.5755   18.7521 N   0  0  0  0  0  0  0  0  0  0  0  0
   28.0887   13.0283   16.5582 O   0  0  0  0  0  0  0  0  0  0  0  0
   28.2826   14.9885   20.9098 C   0  0  0  0  0  0  0  0  0  0  0  0
   30.7229   15.3257   20.6466 O   0  0  0  0  0  0  0  0  0  0  0  0
   26.7406   15.8934   25.1083 N   0  0  0  0  0  0  0  0  0  0  0  0
  1 11  1  0
  1 23  2  0
  1 25  1  0
  2  5  1  0
  2  6  1  6
  2 18  1  0
  2 22  1  0
  3 17  1  0
  3 29  3  0
  4 16  1  0
  4 25  1  0
  5  7  1  6
  5 24  1  0
  7 12  2  0
  7 26  1  0
  8 10  1  0
  9 13  1  0
  9 16  1  0
 10 17  2  0
 10 27  1  0
 11 16  2  0
 11 19  1  0
 12 20  1  0
 13 21  1  0
 22 14  1  6
 15 19  1  0
 15 24  1  0
 15 27  2  0
 17 21  1  0
 18 27  1  0
 18 28  2  0
 19 21  2  0
 20 22  1  0
 24 23  1  1
M  END
