
     RDKit          3D

 14 15  0  0  0  0  0  0  0  0999 V2000
    0.3201   30.8395  -12.6100 N   0  0  0  0  0  0  0  0  0  0  0  0
    1.1507   29.6616  -12.4540 C   0  0  0  0  0  0  0  0  0  0  0  0
   -0.4123   33.1251  -12.2211 C   0  0  0  0  0  0  0  0  0  0  0  0
    0.8891   34.7528  -10.5243 O   0  0  0  0  0  0  0  0  0  0  0  0
   -0.4974   34.8728  -10.6997 C   0  0  0  0  0  0  0  0  0  0  0  0
   -1.3998   34.9148  -12.8246 C   0  0  0  0  0  0  0  0  0  0  0  0
   -0.9601   33.4819  -10.8585 C   0  0  0  0  0  0  0  0  0  0  0  0
    0.5795   31.9414  -11.9789 C   0  0  0  0  0  0  0  0  0  0  0  0
   -0.8036   30.9222  -13.3949 C   0  0  0  0  0  0  0  0  0  0  0  0
   -1.3224   36.8230  -11.6706 O   0  0  0  0  0  0  0  0  0  0  0  0
    1.5890   32.0274  -11.2789 O   0  0  0  0  0  0  0  0  0  0  0  0
   -1.4349   32.2651  -13.0729 C   0  0  0  0  0  0  0  0  0  0  0  0
    0.6508   28.8250  -11.2888 C   0  0  0  0  0  0  0  0  0  0  0  0
   -0.7494   35.5075  -12.0495 C   0  0  0  0  0  0  0  0  0  0  0  0
  1  2  1  0
  1  8  1  0
  1  9  1  0
  2 13  1  0
  3  6  1  0
  3  7  1  0
  3  8  1  0
  3 12  1  0
  4  5  1  0
  5  7  1  0
  5 14  1  0
  6 14  1  0
  8 11  2  0
  9 12  1  0
 10 14  1  0
M  END
$$$$
