
     RDKit          3D

 13 13  0  0  0  0  0  0  0  0999 V2000
    0.0775   31.1867  -12.5467 C   0  0  0  0  0  0  0  0  0  0  0  0
    2.2718   29.3680  -13.1542 O   0  0  0  0  0  0  0  0  0  0  0  0
   -0.7499   32.4749  -12.7487 C   0  0  0  0  0  0  0  0  0  0  0  0
   -1.0988   35.7591  -13.3904 O   0  0  0  0  0  0  0  0  0  0  0  0
    0.4134   29.0663  -11.6758 C   0  0  0  0  0  0  0  0  0  0  0  0
    0.7854   34.0114  -11.7649 O   0  0  0  0  0  0  0  0  0  0  0  0
   -0.5198   30.1318  -11.6738 O   0  0  0  0  0  0  0  0  0  0  0  0
   -0.3221   33.8096  -12.2233 C   0  0  0  0  0  0  0  0  0  0  0  0
    1.6279   31.6611  -10.5834 O   0  0  0  0  0  0  0  0  0  0  0  0
    1.4714   31.2377  -11.9222 C   0  0  0  0  0  0  0  0  0  0  0  0
   -1.2388   35.0044  -12.2489 C   0  0  0  0  0  0  0  0  0  0  0  0
    1.7375   29.7390  -11.8806 C   0  0  0  0  0  0  0  0  0  0  0  0
   -0.8907   35.8707  -11.0572 C   0  0  0  0  0  0  0  0  0  0  0  0
  1  3  1  0
  1  7  1  0
  1 10  1  0
  2 12  1  0
  3  8  1  0
  4 11  1  0
  5  7  1  0
  5 12  1  0
  6  8  2  0
  8 11  1  0
  9 10  1  0
 10 12  1  0
 11 13  1  0
M  END
$$$$
