
     RDKit          3D

  9  8  0  0  0  0  0  0  0  0999 V2000
  -13.9410   -8.4343   27.7536 O   0  0  0  0  0  0  0  0  0  0  0  0
  -13.5107   -9.3379   26.9076 C   0  0  0  0  0  0  0  0  0  0  0  0
  -14.9654  -10.2397   23.7987 C   0  0  0  0  0  0  0  0  0  0  0  0
  -15.0737  -10.1183   25.2727 C   0  0  0  0  0  0  0  0  0  0  0  0
  -13.8913   -8.9633   23.1376 S   0  0  0  0  0  0  0  0  0  0  0  0
  -13.5679  -11.6762   25.9427 C   0  0  0  0  0  0  0  0  0  0  0  0
  -14.3305  -10.4792   26.3310 C   0  0  0  0  0  0  0  0  0  0  0  0
  -12.2562   -9.4132   26.5129 O   0  0  0  0  0  0  0  0  0  0  0  0
  -12.6508  -12.3914   25.6001 O   0  0  0  0  0  0  0  0  0  0  0  0
  1  2  1  0
  2  7  1  0
  2  8  2  0
  3  4  1  0
  3  5  1  0
  4  7  1  0
  6  7  1  0
  6  9  2  0
M  END
$$$$
