
     RDKit          3D

  8  7  0  0  0  0  0  0  0  0999 V2000
   -2.5555   -5.7333   22.8255 S   0  0  0  0  0  0  0  0  0  0  0  0
   -3.2195   -8.0591   21.3071 C   0  0  0  0  0  0  0  0  0  0  0  0
   -1.5903   -6.4992   24.2055 O   0  0  0  0  0  0  0  0  0  0  0  0
   -1.4267   -8.9089   22.4726 C   0  0  0  0  0  0  0  0  0  0  0  0
   -3.4372   -7.1640   20.5491 C   0  0  0  0  0  0  0  0  0  0  0  0
   -2.0706   -7.8072   22.1953 C   0  0  0  0  0  0  0  0  0  0  0  0
   -1.7190   -6.3777   22.7670 C   0  0  0  0  0  0  0  0  0  0  0  0
   -3.6054   -6.2794   19.7015 O   0  0  0  0  0  0  0  0  0  0  0  0
  1  7  1  0
  2  5  1  0
  2  6  1  0
  3  7  1  0
  4  6  2  0
  5  8  2  0
  6  7  1  0
M  END
$$$$
