
     RDKit          3D

 15 16  0  0  0  0  0  0  0  0999 V2000
   32.0264   -9.9647  -73.7540 C   0  0  0  0  0  0  0  0  0  0  0  0
   31.8017   -6.7977  -72.1141 C   0  0  0  0  0  0  0  0  0  0  0  0
   28.2514   -9.0410  -70.0754 C   0  0  0  0  0  0  0  0  0  0  0  0
   29.1587   -9.5654  -67.6662 C   0  0  0  0  0  0  0  0  0  0  0  0
   32.4163   -9.5871  -74.8204 O   0  0  0  0  0  0  0  0  0  0  0  0
   32.1276   -7.7560  -72.9648 C   0  0  0  0  0  0  0  0  0  0  0  0
   30.0513   -9.1962  -68.6256 C   0  0  0  0  0  0  0  0  0  0  0  0
   30.9143   -9.4162  -71.8357 N   0  0  0  0  0  0  0  0  0  0  0  0
   31.8701  -11.2617  -73.5057 N   0  0  0  0  0  0  0  0  0  0  0  0
   29.5998   -8.9149  -69.8814 C   0  0  0  0  0  0  0  0  0  0  0  0
   27.8633   -9.6785  -67.8301 N   0  0  0  0  0  0  0  0  0  0  0  0
   30.5071   -8.5184  -70.9624 C   0  0  0  0  0  0  0  0  0  0  0  0
   30.9215   -7.2364  -71.0550 C   0  0  0  0  0  0  0  0  0  0  0  0
   31.7013   -9.0540  -72.8327 C   0  0  0  0  0  0  0  0  0  0  0  0
   27.4409   -9.4113  -69.0493 C   0  0  0  0  0  0  0  0  0  0  0  0
  1  5  2  0
  1  9  1  0
  1 14  1  0
  2  6  2  0
  2 13  1  0
  3 10  2  0
  3 15  1  0
  4  7  2  0
  4 11  1  0
  6 14  1  0
  7 10  1  0
  8 12  1  0
  8 14  2  0
 10 12  1  0
 11 15  2  0
 12 13  2  0
M  END
$$$$
