
     RDKit          3D

 21 21  0  0  0  0  0  0  0  0999 V2000
   36.8247   44.2213   17.2993 S   0  0  0  0  0  0  0  0  0  0  0  0
   38.3974   45.0432   17.1073 C   0  0  0  0  0  0  0  0  0  0  0  0
   29.8930   40.4072   18.1266 C   0  0  0  0  0  0  0  0  0  0  0  0
   28.7822   40.0325   19.1298 C   0  0  0  0  0  0  0  0  0  0  0  0
   31.4448   42.7663   18.0904 C   0  0  0  0  0  0  0  0  0  0  0  0
   27.6872   40.8786   19.3557 C   0  0  0  0  0  0  0  0  0  0  0  0
   38.1244   46.3731   13.8727 O   0  0  0  0  0  0  0  0  0  0  0  0
   30.1041   41.9720   18.0612 C   0  0  0  0  0  0  0  0  0  0  0  0
   39.0624   45.3012   18.4647 C   0  0  0  0  0  0  0  0  0  0  0  0
   34.0871   43.1288   17.4635 C   0  0  0  0  0  0  0  0  0  0  0  0
   26.7903   39.2924   20.8965 C   0  0  0  0  0  0  0  0  0  0  0  0
   32.6955   42.5899   17.0340 C   0  0  0  0  0  0  0  0  0  0  0  0
   36.4379   45.3579   15.1869 O   0  0  0  0  0  0  0  0  0  0  0  0
   38.5765   45.8583   16.1261 C   0  0  0  0  0  0  0  0  0  0  0  0
   40.8961   46.7793   17.7201 O   0  0  0  0  0  0  0  0  0  0  0  0
   26.6558   40.5180   20.2457 C   0  0  0  0  0  0  0  0  0  0  0  0
   27.8197   38.4723   20.6814 N   0  0  0  0  0  0  0  0  0  0  0  0
   35.2519   43.5692   16.3989 C   0  0  0  0  0  0  0  0  0  0  0  0
   28.8132   38.8284   19.8233 C   0  0  0  0  0  0  0  0  0  0  0  0
   37.7473   45.9090   14.9701 C   0  0  0  0  0  0  0  0  0  0  0  0
   40.5247   45.6487   18.4525 C   0  0  0  0  0  0  0  0  0  0  0  0
  1  2  1  0
  1 18  1  0
  2  9  1  0
  2 14  2  3
  3  4  1  0
  3  8  1  0
  4  6  2  0
  4 19  1  0
  5  8  1  0
  5 12  1  0
  6 16  1  0
  7 20  2  0
  9 21  1  0
 10 12  1  0
 10 18  1  0
 11 16  2  0
 11 17  1  0
 13 20  1  0
 14 20  1  0
 15 21  1  0
 17 19  2  0
M  END
$$$$
