
     RDKit          3D

 24 27  0  0  0  0  0  0  0  0999 V2000
   -5.1352    1.1643    0.6626 C   0  0  0  0  0  0  0  0  0  0  0  0
   -0.8079    1.1391   -0.4013 C   0  0  0  0  0  0  0  0  0  0  0  0
    0.7663   -1.2030   -0.7385 C   0  0  0  0  0  0  0  0  0  0  0  0
   -0.5146   -3.5575   -1.5899 C   0  0  0  0  0  0  0  0  0  0  0  0
   -4.0677    2.0425    0.4097 C   0  0  0  0  0  0  0  0  0  0  0  0
    1.5716    3.5819   -0.0242 C   0  0  0  0  0  0  0  0  0  0  0  0
   -1.6837    2.1449   -0.1425 N   0  0  0  0  0  0  0  0  0  0  0  0
   -0.6435   -1.2752   -0.7620 C   0  0  0  0  0  0  0  0  0  0  0  0
   -2.8444    1.4896    0.0395 C   0  0  0  0  0  0  0  0  0  0  0  0
    0.8757   -3.5125   -1.5112 C   0  0  0  0  0  0  0  0  0  0  0  0
    0.6735    1.3398   -0.5939 C   0  0  1  0  0  0  0  0  0  0  0  0
    4.8143   -0.7866    1.1391 C   0  0  0  0  0  0  0  0  0  0  0  0
   -2.6685    0.1384   -0.1036 C   0  0  0  0  0  0  0  0  0  0  0  0
   -4.9469   -0.2314    0.5720 C   0  0  0  0  0  0  0  0  0  0  0  0
   -3.6970   -0.7621    0.2031 C   0  0  0  0  0  0  0  0  0  0  0  0
   -1.3781   -0.0862   -0.4291 N   0  0  0  0  0  0  0  0  0  0  0  0
   -1.2723   -2.4384   -1.2422 C   0  0  0  0  0  0  0  0  0  0  0  0
    1.1294    2.0932    1.7989 N   0  0  0  0  0  0  0  0  0  0  0  0
    1.5165   -2.3391   -1.1112 C   0  0  0  0  0  0  0  0  0  0  0  0
    2.8234    0.1002   -0.1374 C   0  0  0  0  0  0  0  0  0  0  0  0
    1.1521    2.3858    0.3968 C   0  0  0  0  0  0  0  0  0  0  0  0
    3.5597    0.9239   -0.7464 O   0  0  0  0  0  0  0  0  0  0  0  0
    1.4088    0.0614   -0.4150 N   0  0  0  0  0  0  0  0  0  0  0  0
    3.3853   -0.7673    0.8555 N   0  0  0  0  0  0  0  0  0  0  0  0
  1  5  1  0
  1 14  2  0
  2  7  2  0
  2 11  1  0
  2 16  1  0
  3  8  1  0
  3 19  2  0
  3 23  1  0
  4 10  2  0
  4 17  1  0
  5  9  2  0
  6 21  2  0
  7  9  1  0
  8 16  1  0
  8 17  2  0
  9 13  1  0
 10 19  1  0
 11 21  1  1
 11 23  1  0
 12 24  1  0
 13 15  2  0
 13 16  1  0
 14 15  1  0
 18 21  1  0
 20 22  2  0
 20 23  1  0
 20 24  1  0
M  END
