
     RDKit          3D

 17 17  0  0  0  0  0  0  0  0999 V2000
   -1.5534    0.8368   -0.5089 C   0  0  0  0  0  0  0  0  0  0  0  0
    3.7865    0.2235    0.2227 C   0  0  0  0  0  0  0  0  0  0  0  0
   -1.0750    2.1022   -0.8913 O   0  0  0  0  0  0  0  0  0  0  0  0
   -0.6414   -0.2366   -0.4020 C   0  0  0  0  0  0  0  0  0  0  0  0
   -2.4788   -1.7182    0.1978 C   0  0  0  0  0  0  0  0  0  0  0  0
    2.9157    1.3195   -0.3151 C   0  0  0  0  0  0  0  0  0  0  0  0
   -1.1037   -1.5283   -0.0358 C   0  0  0  0  0  0  0  0  0  0  0  0
    3.9529    0.0771    1.4992 N   0  0  0  0  0  0  0  0  0  0  0  0
    0.7841    0.0022   -0.7139 C   0  0  0  0  0  0  0  0  0  0  0  0
    1.5113    1.0351   -0.0326 N   0  0  0  0  0  0  0  0  0  0  0  0
    4.4068   -0.6545   -0.6614 O   0  0  0  0  0  0  0  0  0  0  0  0
    1.3546   -0.7015   -1.5914 O   0  0  0  0  0  0  0  0  0  0  0  0
   -0.1769   -2.6239    0.1413 N   0  0  0  0  0  0  0  0  0  0  0  0
   -2.9177    0.6146   -0.2512 C   0  0  0  0  0  0  0  0  0  0  0  0
   -1.8834    3.2657   -1.0335 C   0  0  0  0  0  0  0  0  0  0  0  0
   -3.3727   -0.6552    0.0924 C   0  0  0  0  0  0  0  0  0  0  0  0
   -0.5927   -3.9552    0.3113 N   0  0  0  0  0  0  0  0  0  0  0  0
  1  3  1  0
  1  4  1  0
  1 14  2  0
  2  6  1  0
  2  8  2  0
  2 11  1  0
  3 15  1  0
  4  7  2  0
  4  9  1  0
  5  7  1  0
  5 16  2  0
  6 10  1  0
  7 13  1  0
  9 10  1  0
  9 12  2  0
 13 17  1  0
 14 16  1  0
M  END
