
     RDKit          3D

 18 19  0  0  0  0  0  0  0  0999 V2000
   -0.0437    0.9145    1.0844 N   0  0  0  0  0  0  0  0  0  0  0  0
   -0.3215    1.8684   -1.7378 N   0  0  0  0  0  0  0  0  0  0  0  0
    1.6698   -3.7000    1.4654 C   0  0  0  0  0  0  0  0  0  0  0  0
    0.5633   -0.2060    0.4151 C   0  0  0  0  0  0  0  0  0  0  0  0
    1.6101   -1.3108   -1.4962 C   0  0  0  0  0  0  0  0  0  0  0  0
    1.8359    1.4478   -2.4755 O   0  0  0  0  0  0  0  0  0  0  0  0
    2.1043   -1.3875   -3.1869 Cl  0  0  0  0  0  0  0  0  0  0  0  0
   -1.4202    1.5751   -0.8246 C   0  0  1  0  0  0  0  0  0  0  0  0
    0.9981   -0.1616   -0.9391 C   0  0  0  0  0  0  0  0  0  0  0  0
    1.8084   -2.4537   -0.7165 C   0  0  0  0  0  0  0  0  0  0  0  0
    0.8729    1.0783   -1.7512 C   0  0  0  0  0  0  0  0  0  0  0  0
   -1.3242    2.8505    1.4130 N   0  0  0  0  0  0  0  0  0  0  0  0
    0.8035   -1.3522    1.1823 C   0  0  0  0  0  0  0  0  0  0  0  0
    2.9676   -3.6472    1.9909 O   0  0  0  0  0  0  0  0  0  0  0  0
   -0.9134    1.7491    0.5937 C   0  0  0  0  0  0  0  0  0  0  0  0
   -2.6568    2.4227   -1.1803 C   0  0  0  0  0  0  0  0  0  0  0  0
   -3.7190    2.1536   -0.3043 O   0  0  0  0  0  0  0  0  0  0  0  0
    1.4047   -2.4834    0.6212 C   0  0  0  0  0  0  0  0  0  0  0  0
  1  4  1  0
  1 15  2  0
  2  8  1  0
  2 11  1  0
  3 14  1  0
  3 18  1  0
  4  9  1  0
  4 13  2  0
  5  7  1  0
  5  9  2  0
  5 10  1  0
  6 11  2  0
  8 15  1  0
  8 16  1  6
  9 11  1  0
 10 18  2  0
 12 15  1  0
 13 18  1  0
 16 17  1  0
M  END
