
     RDKit          3D

 25 27  0  0  0  0  0  0  0  0999 V2000
   -3.6583    2.8555   -0.2927 C   0  0  0  0  0  0  0  0  0  0  0  0
   -5.0256    3.2660   -0.3740 N   0  0  0  0  0  0  0  0  0  0  0  0
    3.1435    0.9184    0.1084 N   0  0  0  0  0  0  0  0  0  0  0  0
    0.7827    0.1780    0.1055 C   0  0  0  0  0  0  0  0  0  0  0  0
    6.3096   -0.6241   -1.0282 O   0  0  0  0  0  0  0  0  0  0  0  0
    0.3463   -2.1869    0.3350 C   0  0  0  0  0  0  0  0  0  0  0  0
   -2.8126   -1.7330    0.1600 N   0  0  0  0  0  0  0  0  0  0  0  0
   -0.0415   -0.9190    0.1942 C   0  0  0  0  0  0  0  0  0  0  0  0
    1.6891   -2.4929    0.4050 C   0  0  0  0  0  0  0  0  0  0  0  0
    4.9841   -0.2133   -1.0134 C   0  0  0  0  0  0  0  0  0  0  0  0
   -1.6270   -0.7222   -1.4019 O   0  0  0  0  0  0  0  0  0  0  0  0
   -2.6065    3.7348   -0.3536 C   0  0  0  0  0  0  0  0  0  0  0  0
   -1.0353    1.8909   -0.1187 C   0  0  0  0  0  0  0  0  0  0  0  0
   -3.7994   -2.0160    1.2165 C   0  0  0  0  0  0  0  0  0  0  0  0
   -3.3532    1.5196   -0.1462 C   0  0  0  0  0  0  0  0  0  0  0  0
    5.0044    0.0278    1.4687 C   0  0  0  0  0  0  0  0  0  0  0  0
    4.2013   -0.5189   -1.9480 O   0  0  0  0  0  0  0  0  0  0  0  0
    4.5581    0.6035    0.1698 C   0  0  2  0  0  0  0  0  0  0  0  0
    2.1577   -0.1166    0.1751 C   0  0  0  0  0  0  0  0  0  0  0  0
   -1.3172    3.2570   -0.2677 C   0  0  0  0  0  0  0  0  0  0  0  0
   -2.1079    1.0554   -0.0629 C   0  0  0  0  0  0  0  0  0  0  0  0
   -2.7471   -2.9133   -0.6345 C   0  0  0  0  0  0  0  0  0  0  0  0
    0.3174    1.5098   -0.0428 N   0  0  0  0  0  0  0  0  0  0  0  0
    2.5806   -1.4194    0.3208 C   0  0  0  0  0  0  0  0  0  0  0  0
   -1.8373   -0.6591    0.1253 S   0  0  0  0  0  0  0  0  0  0  0  0
  1  2  1  0
  1 12  1  0
  1 15  2  0
  3 18  1  0
  3 19  1  0
  4  8  1  0
  4 19  2  0
  4 23  1  0
  5 10  1  0
  6  8  2  0
  6  9  1  0
  7 14  1  0
  7 22  1  0
  7 25  1  0
  8 25  1  0
  9 24  2  0
 10 17  2  0
 10 18  1  0
 11 25  2  0
 12 20  2  0
 13 20  1  0
 13 21  2  0
 13 23  1  0
 15 21  1  0
 18 16  1  1
 19 24  1  0
 21 25  1  0
M  END
