
     RDKit          3D

 23 24  0  0  0  0  0  0  0  0999 V2000
    3.3498   -0.2507   -1.3754 C   0  0  0  0  0  0  0  0  0  0  0  0
   -0.4555   -0.0196   -1.0411 N   0  0  0  0  0  0  0  0  0  0  0  0
   -0.7161   -2.3149   -0.1323 C   0  0  0  0  0  0  0  0  0  0  0  0
   -1.8686    0.3573   -0.9838 C   0  0  0  0  0  0  0  0  0  0  0  0
    0.0980   -1.2009   -0.4214 C   0  0  0  0  0  0  0  0  0  0  0  0
    2.3859   -0.1223   -0.3618 C   0  0  0  0  0  0  0  0  0  0  0  0
   -2.2788    0.6947    0.4498 C   0  0  0  0  0  0  0  0  0  0  0  0
    4.0737    2.0265   -1.0164 C   0  0  0  0  0  0  0  0  0  0  0  0
   -4.4812    1.4755    2.1279 O   0  0  0  0  0  0  0  0  0  0  0  0
    1.1939   -3.5326    0.7164 C   0  0  0  0  0  0  0  0  0  0  0  0
    2.2817    1.1001    0.3565 C   0  0  0  0  0  0  0  0  0  0  0  0
    1.4809   -1.2683   -0.1173 C   0  0  0  0  0  0  0  0  0  0  0  0
    4.1876    0.8160   -1.6993 C   0  0  0  0  0  0  0  0  0  0  0  0
    0.8291    0.1955    2.1852 O   0  0  0  0  0  0  0  0  0  0  0  0
    0.9829    2.4493    1.8290 O   0  0  0  0  0  0  0  0  0  0  0  0
    2.0166   -2.4406    0.4399 C   0  0  0  0  0  0  0  0  0  0  0  0
    1.3293    1.2876    1.4817 C   0  0  0  0  0  0  0  0  0  0  0  0
    5.1252    3.3681   -1.4315 Cl  0  0  0  0  0  0  0  0  0  0  0  0
   -4.9968   -0.1476   -0.0441 O   0  0  0  0  0  0  0  0  0  0  0  0
    3.1287    2.1685    0.0029 C   0  0  0  0  0  0  0  0  0  0  0  0
   -0.1696   -3.4681    0.4346 C   0  0  0  0  0  0  0  0  0  0  0  0
   -4.0274    1.1329    0.5235 S   0  0  0  0  0  0  0  0  0  0  0  0
   -4.3383    2.5158   -0.4208 O   0  0  0  0  0  0  0  0  0  0  0  0
  1  6  1  0
  1 13  2  0
  2  4  1  0
  2  5  1  0
  3  5  2  0
  3 21  1  0
  4  7  1  0
  5 12  1  0
  6 11  2  0
  6 12  1  0
  7 22  1  0
  8 13  1  0
  8 18  1  0
  8 20  2  0
  9 22  1  0
 10 16  1  0
 10 21  2  0
 11 17  1  0
 11 20  1  0
 12 16  2  0
 14 17  1  0
 15 17  2  0
 19 22  1  0
 22 23  1  0
M  END
