
     RDKit          3D

 27 30  0  0  0  0  0  0  0  0999 V2000
   -1.7816   -2.7041   -0.6999 C   0  0  0  0  0  0  0  0  0  0  0  0
    2.7694    1.2530    2.4387 C   0  0  0  0  0  0  0  0  0  0  0  0
    2.5666    2.0949   -1.1074 C   0  0  0  0  0  0  0  0  0  0  0  0
   -1.5413   -0.3240    0.1297 C   0  0  0  0  0  0  0  0  0  0  0  0
    2.2322   -0.0270    2.4865 C   0  0  0  0  0  0  0  0  0  0  0  0
    2.0536    1.5757   -2.2993 C   0  0  0  0  0  0  0  0  0  0  0  0
   -2.1183    0.2418    2.5165 C   0  0  0  0  0  0  0  0  0  0  0  0
    2.4282    1.3613    0.0866 C   0  0  0  0  0  0  0  0  0  0  0  0
    0.3036   -1.5501   -1.2051 C   0  0  0  0  0  0  0  0  0  0  0  0
   -3.4405    2.0035    1.1062 C   0  0  0  0  0  0  0  0  0  0  0  0
    1.7908   -0.6480    1.3122 C   0  0  0  0  0  0  0  0  0  0  0  0
   -2.4945    2.4461    3.2079 O   0  0  0  0  0  0  0  0  0  0  0  0
    0.7229   -2.6754   -1.9356 C   0  0  0  0  0  0  0  0  0  0  0  0
    1.3766    0.3610   -2.3063 C   0  0  0  0  0  0  0  0  0  0  0  0
    3.2343    3.4442   -1.1078 C   0  0  0  0  0  0  0  0  0  0  0  0
   -3.1044    1.6299   -0.3085 C   0  0  0  0  0  0  0  0  0  0  0  0
    1.8123    0.0762    0.0834 C   0  0  0  0  0  0  0  0  0  0  0  0
   -0.0895   -3.8051   -2.0286 C   0  0  0  0  0  0  0  0  0  0  0  0
   -1.3350   -3.8227   -1.4047 C   0  0  0  0  0  0  0  0  0  0  0  0
   -2.6304    1.6071    2.2777 C   0  0  0  0  0  0  0  0  0  0  0  0
    2.8752    1.8997    1.2542 N   0  0  0  0  0  0  0  0  0  0  0  0
   -0.9851   -1.5444   -0.6020 C   0  0  0  0  0  0  0  0  0  0  0  0
    1.2181   -0.3857   -1.1299 C   0  0  0  0  0  0  0  0  0  0  0  0
   -4.4045    2.7939    1.2946 O   0  0  0  0  0  0  0  0  0  0  0  0
   -1.7107   -0.6345    1.5933 C   0  0  0  0  0  0  0  0  0  0  0  0
   -2.8666    0.1337   -0.5078 C   0  0  0  0  0  0  0  0  0  0  0  0
    1.4264   -2.0312    1.3905 N   0  0  0  0  0  0  0  0  0  0  0  0
  1 19  1  0
  1 22  2  0
  2  5  2  0
  2 21  1  0
  3  6  2  0
  3  8  1  0
  3 15  1  0
  4 22  1  0
  4 25  1  0
  4 26  1  0
  5 11  1  0
  6 14  1  0
  7 20  1  0
  7 25  2  0
  8 17  1  0
  8 21  2  0
  9 13  2  0
  9 22  1  0
  9 23  1  0
 10 16  1  0
 10 20  1  0
 10 24  2  0
 11 17  2  0
 11 27  1  0
 12 20  2  0
 13 18  1  0
 14 23  2  0
 16 26  1  0
 17 23  1  0
 18 19  2  0
M  END
