
     RDKit          3D

 20 21  0  0  0  0  0  0  0  0999 V2000
    5.7237    4.9064   26.8718 C   0  0  0  0  0  0  0  0  0  0  0  0
    1.5297    5.8926   23.8721 S   0  0  0  0  0  0  0  0  0  0  0  0
   11.7459    3.1533   23.9069 C   0  0  0  0  0  0  0  0  0  0  0  0
    8.1288    4.2644   26.4651 C   0  0  0  0  0  0  0  0  0  0  0  0
    1.8096    4.1037   25.7147 N   0  0  0  0  0  0  0  0  0  0  0  0
    6.6841    4.1150   25.9856 C   0  0  0  0  0  0  0  0  0  0  0  0
   12.8546    2.8032   21.7571 C   0  0  0  0  0  0  0  0  0  0  0  0
    0.5379    3.9657   25.1915 C   0  0  0  0  0  0  0  0  0  0  0  0
    9.2985    3.8459   24.2273 C   0  0  0  0  0  0  0  0  0  0  0  0
   10.2921    2.9805   23.4406 C   0  0  0  0  0  0  0  0  0  0  0  0
   13.8804    0.0939   23.2973 C   0  0  0  0  0  0  0  0  0  0  0  0
    4.3544    4.7519   26.4396 N   0  0  0  0  0  0  0  0  0  0  0  0
   12.7561    2.3927   23.1550 N   0  0  0  0  0  0  0  0  0  0  0  0
    9.1251    3.4021   25.6825 C   0  0  0  0  0  0  0  0  0  0  0  0
    0.2072    4.8469   24.1845 C   0  0  0  0  0  0  0  0  0  0  0  0
    3.7972    5.4983   25.4151 C   0  0  0  0  0  0  0  0  0  0  0  0
    4.4219    6.3948   24.8509 O   0  0  0  0  0  0  0  0  0  0  0  0
   13.1097    0.2769   24.5704 C   0  0  0  0  0  0  0  0  0  0  0  0
   12.6317    0.9345   23.3041 C   0  0  0  0  0  0  0  0  0  0  0  0
    2.4291    5.0958   25.0946 C   0  0  0  0  0  0  0  0  0  0  0  0
  1  6  1  0
  1 12  1  0
  2 15  1  0
  2 20  1  0
  3 10  1  0
  3 13  1  0
  4  6  1  0
  4 14  1  0
  5  8  1  0
  5 20  2  0
  7 13  1  0
  8 15  2  0
  9 10  1  0
  9 14  1  0
 11 18  1  0
 11 19  1  0
 12 16  1  0
 13 19  1  0
 16 17  2  0
 16 20  1  0
 18 19  1  0
M  END
$$$$
