
     RDKit          3D

 10  9  0  0  0  0  0  0  0  0999 V2000
    4.6267  -12.9134   13.2966 C   0  0  0  0  0  0  0  0  0  0  0  0
    4.3263   -8.2039    9.3456 C   0  0  2  0  0  0  0  0  0  0  0  0
    1.8209   -7.9841    6.5355 O   0  0  0  0  0  0  0  0  0  0  0  0
    3.0341   -7.7047    7.2259 C   0  0  0  0  0  0  0  0  0  0  0  0
    4.4776  -10.9922   11.8882 O   0  0  0  0  0  0  0  0  0  0  0  0
    3.0180   -8.4070    8.5797 C   0  0  0  0  0  0  0  0  0  0  0  0
    4.5316  -12.4171   11.8677 C   0  0  0  0  0  0  0  0  0  0  0  0
    4.3846  -10.4464   10.5722 C   0  0  0  0  0  0  0  0  0  0  0  0
    4.3599   -8.9282   10.6936 C   0  0  0  0  0  0  0  0  0  0  0  0
    4.5111   -6.8052    9.5749 O   0  0  0  0  0  0  0  0  0  0  0  0
  1  7  1  0
  2  6  1  0
  2  9  1  0
  2 10  1  1
  3  4  1  0
  4  6  1  0
  5  7  1  0
  5  8  1  0
  8  9  1  0
M  END
$$$$
