
     RDKit          3D

 32 38  0  0  0  0  0  0  0  0999 V2000
  -11.4676   31.8354   -1.6275 C   0  0  0  0  0  0  0  0  0  0  0  0
  -10.3335   30.1506   -5.8765 O   0  0  0  0  0  0  0  0  0  0  0  0
  -11.6560   33.2898    0.4802 C   0  0  0  0  0  0  0  0  0  0  0  0
   -3.5781   31.8696   -0.3182 C   0  0  0  0  0  0  0  0  0  0  0  0
   -4.5712   29.9204   -3.5242 C   0  0  0  0  0  0  0  0  0  0  0  0
   -5.9154   29.9211   -3.1184 C   0  0  0  0  0  0  0  0  0  0  0  0
   -4.9457   31.8810    0.0912 O   0  0  0  0  0  0  0  0  0  0  0  0
   -8.7877   28.4511   -6.0239 C   0  0  0  0  0  0  0  0  0  0  0  0
  -10.8789   32.6964   -0.5911 C   0  0  0  0  0  0  0  0  0  0  0  0
  -12.8712   32.9368    1.2526 N   0  0  0  0  0  0  0  0  0  0  0  0
  -10.9884   34.2104    1.2124 N   0  0  0  0  0  0  0  0  0  0  0  0
   -9.6752   31.5390   -0.0386 C   0  0  0  0  0  0  0  0  0  0  0  0
   -7.5494   30.0932   -4.5552 C   0  0  0  0  0  0  0  0  0  0  0  0
  -10.1577   32.7790   -4.4463 C   0  0  0  0  0  0  0  0  0  0  0  0
   -9.8859   31.6736   -5.6390 C   0  0  0  0  0  0  0  0  0  0  0  0
   -9.2220   32.7436   -0.3774 C   0  0  0  0  0  0  0  0  0  0  0  0
   -3.9725   31.1245   -1.4962 N   0  0  0  0  0  0  0  0  0  0  0  0
   -6.7334   29.1472   -4.1574 C   0  0  0  0  0  0  0  0  0  0  0  0
  -10.7515   30.7270   -2.0486 C   0  0  0  0  0  0  0  0  0  0  0  0
   -7.9237   27.3888   -5.4235 C   0  0  0  0  0  0  0  0  0  0  0  0
   -8.7383   33.6990   -1.5211 C   0  0  0  0  0  0  0  0  0  0  0  0
   -8.1452   26.2521   -5.6353 O   0  0  0  0  0  0  0  0  0  0  0  0
  -11.9330   34.1168    1.4665 C   0  0  0  0  0  0  0  0  0  0  0  0
   -7.1455   34.1489   -1.7196 Cl  0  0  0  0  0  0  0  0  0  0  0  0
   -6.8099   27.7617   -4.6758 C   0  0  0  0  0  0  0  0  0  0  0  0
   -8.3708   29.8317   -3.7892 O   0  0  0  0  0  0  0  0  0  0  0  0
   -7.8617   29.7604   -6.0027 C   0  0  0  0  0  0  0  0  0  0  0  0
   -9.6274   30.5289   -1.1920 C   0  0  0  0  0  0  0  0  0  0  0  0
   -9.3591   30.4769   -4.7373 C   0  0  0  0  0  0  0  0  0  0  0  0
   -6.2602   30.6819   -1.8705 C   0  0  0  0  0  0  0  0  0  0  0  0
   -5.1475   31.1948   -1.1098 C   0  0  0  0  0  0  0  0  0  0  0  0
   -3.6303   30.4988   -2.7018 C   0  0  0  0  0  0  0  0  0  0  0  0
  1  9  4  0
  1 19  4  0
  2 15  1  0
  2 29  1  0
  3  9  1  0
  3 10  1  0
  3 11  1  0
  3 23  1  0
  4  7  1  0
  4 17  1  0
  5  6  2  0
  5 32  1  0
  6 18  1  0
  6 30  1  0
  7 31  2  0
  8 20  1  0
  8 27  1  0
  9 12  1  0
  9 16  4  0
 10 23  1  0
 11 23  2  0
 12 16  4  0
 12 28  1  0
 13 18  1  0
 13 26  1  0
 13 27  1  0
 14 15  1  0
 15 29  1  0
 16 21  1  0
 17 31  1  0
 17 32  1  0
 18 25  1  0
 19 28  4  0
 20 22  2  0
 20 25  1  0
 21 24  1  0
 26 29  1  0
 30 31  1  0
M  END
$$$$
