
     RDKit          3D

 25 27  0  0  0  0  0  0  0  0999 V2000
  -13.0585   -0.3213  -21.7050 N   0  0  0  0  0  0  0  0  0  0  0  0
  -14.4819    1.1401  -22.6022 N   0  0  0  0  0  0  0  0  0  0  0  0
  -11.4056    4.4207  -19.9336 O   0  0  0  0  0  0  0  0  0  0  0  0
  -12.2822    6.3311  -21.4385 O   0  0  0  0  0  0  0  0  0  0  0  0
  -13.1902    0.6900  -22.5400 C   0  0  0  0  0  0  0  0  0  0  0  0
  -16.1697   -1.4334  -20.0178 N   0  0  0  0  0  0  0  0  0  0  0  0
  -16.9298   -0.5012  -20.6328 C   0  0  0  0  0  0  0  0  0  0  0  0
  -10.6383    5.5562  -23.3166 O   0  0  0  0  0  0  0  0  0  0  0  0
  -15.2291    0.3588  -21.7617 C   0  0  0  0  0  0  0  0  0  0  0  0
  -12.5438    4.9175  -20.7619 P   0  0  1  0  0  0  0  0  0  0  0  0
  -14.3273   -0.5339  -21.2073 C   0  0  0  0  0  0  0  0  0  0  0  0
  -14.4970    4.7405  -25.1324 O   0  0  0  0  0  0  0  0  0  0  0  0
  -16.5474    0.4434  -21.5169 N   0  0  0  0  0  0  0  0  0  0  0  0
   -9.8036    6.7179  -21.1585 O   0  0  0  0  0  0  0  0  0  0  0  0
  -14.8436   -1.4587  -20.2845 C   0  0  0  0  0  0  0  0  0  0  0  0
  -14.0821    4.3408  -22.7920 C   0  0  2  0  0  0  0  0  0  0  0  0
  -13.7164    3.9783  -24.2296 C   0  0  1  0  0  0  0  0  0  0  0  0
  -13.0500    3.9228  -21.9079 O   0  0  0  0  0  0  0  0  0  0  0  0
  -15.0102    2.2412  -23.3902 C   0  0  2  0  0  0  0  0  0  0  0  0
  -13.8628    5.1506  -19.8838 O   0  0  0  0  0  0  0  0  0  0  0  0
  -11.0630    8.0647  -22.7743 O   0  0  0  0  0  0  0  0  0  0  0  0
  -14.0571    2.6027  -24.4075 O   0  0  0  0  0  0  0  0  0  0  0  0
  -10.9459    6.5579  -22.2603 P   0  0  0  0  0  0  0  0  0  0  0  0
  -14.0616   -2.4112  -19.6431 N   0  0  0  0  0  0  0  0  0  0  0  0
  -15.3065    3.4866  -22.5617 C   0  0  0  0  0  0  0  0  0  0  0  0
  1  5  2  0
  1 11  1  0
  2  5  1  0
  2  9  1  0
 19  2  1  1
  3 10  2  0
  4 10  1  0
  4 23  1  0
  6  7  2  0
  6 15  1  0
  7 13  1  0
  8 23  2  0
  9 11  1  0
  9 13  2  0
 10 18  1  0
 10 20  1  1
 11 15  2  0
 17 12  1  6
 14 23  1  0
 15 24  1  0
 16 17  1  0
 16 18  1  1
 16 25  1  0
 17 22  1  0
 19 22  1  0
 19 25  1  0
 21 23  1  0
M  END
$$$$
