
     RDKit          3D

 21 23  0  0  0  0  0  0  0  0999 V2000
   25.7022    7.8459  -15.8835 C   0  0  0  0  0  0  0  0  0  0  0  0
   25.1672    9.4121  -14.1829 C   0  0  0  0  0  0  0  0  0  0  0  0
   19.1419   10.6276  -10.3623 C   0  0  0  0  0  0  0  0  0  0  0  0
   22.8434    9.8604  -13.4847 C   0  0  0  0  0  0  0  0  0  0  0  0
   26.8670    7.0217  -16.8449 Cl  0  0  0  0  0  0  0  0  0  0  0  0
   20.7600   11.8209   -8.4586 N   0  0  0  0  0  0  0  0  0  0  0  0
   24.3885    7.5604  -16.0615 C   0  0  0  0  0  0  0  0  0  0  0  0
   23.8197    9.1537  -14.3288 C   0  0  0  0  0  0  0  0  0  0  0  0
   26.1510    8.8022  -14.9368 C   0  0  0  0  0  0  0  0  0  0  0  0
   22.8157    9.5404  -12.1321 C   0  0  0  0  0  0  0  0  0  0  0  0
   21.9527   10.1138  -11.2560 C   0  0  0  0  0  0  0  0  0  0  0  0
   21.5355   12.5746   -7.7116 C   0  0  0  0  0  0  0  0  0  0  0  0
   23.4129    8.2271  -15.2741 C   0  0  0  0  0  0  0  0  0  0  0  0
   21.0795   11.0791  -11.7399 C   0  0  0  0  0  0  0  0  0  0  0  0
   21.9759   10.8290  -13.9484 C   0  0  0  0  0  0  0  0  0  0  0  0
   20.0866   11.7552  -10.8169 C   0  0  2  0  0  0  0  0  0  0  0  0
   21.6570   12.4205   -6.3622 N   0  0  0  0  0  0  0  0  0  0  0  0
   20.8836   12.2692   -9.6577 N   0  0  0  0  0  0  0  0  0  0  0  0
   22.1622   13.4961   -8.4133 N   0  0  0  0  0  0  0  0  0  0  0  0
   21.0926   11.4361  -13.0777 C   0  0  0  0  0  0  0  0  0  0  0  0
   21.7677   13.3232   -9.6731 C   0  0  0  0  0  0  0  0  0  0  0  0
  1  5  1  0
  1  7  1  0
  1  9  2  0
  2  8  2  0
  2  9  1  0
 16  3  1  1
  4  8  1  0
  4 10  1  0
  4 15  2  0
  6 12  1  0
  6 18  1  0
  7 13  2  0
  8 13  1  0
 10 11  2  0
 11 14  1  0
 12 17  1  0
 12 19  2  0
 14 16  1  0
 14 20  2  0
 15 20  1  0
 16 18  1  0
 18 21  1  0
 19 21  1  0
M  END
