
     RDKit          3D

  8  8  0  0  0  0  0  0  0  0999 V2000
   11.2155  -19.0091  -10.6305 C   0  0  0  0  0  0  0  0  0  0  0  0
   10.9607  -16.7124  -11.2724 C   0  0  0  0  0  0  0  0  0  0  0  0
   10.8747  -20.3145  -10.8316 O   0  0  0  0  0  0  0  0  0  0  0  0
   10.6334  -18.0513  -11.4527 C   0  0  0  0  0  0  0  0  0  0  0  0
   12.1175  -18.6426   -9.6344 C   0  0  0  0  0  0  0  0  0  0  0  0
   11.8603  -16.3239  -10.2824 C   0  0  0  0  0  0  0  0  0  0  0  0
   12.4395  -17.2944   -9.4617 C   0  0  0  0  0  0  0  0  0  0  0  0
   10.3734  -15.7959  -12.0945 O   0  0  0  0  0  0  0  0  0  0  0  0
  1  3  1  0
  1  4  2  0
  1  5  1  0
  2  4  1  0
  2  6  2  0
  2  8  1  0
  5  7  2  0
  6  7  1  0
M  END
$$$$
