
     RDKit          3D

 26 25  0  0  0  0  0  0  0  0999 V2000
    6.3388   22.9634   45.5696 O   0  0  0  0  0  0  0  0  0  0  0  0
    3.9375   25.9646   51.1053 O   0  0  0  0  0  0  0  0  0  0  0  0
    6.5763   25.2403   44.4352 O   0  0  0  0  0  0  0  0  0  0  0  0
    0.6606   28.0119   47.3011 C   0  0  0  0  0  0  0  0  0  0  0  0
    4.6582   28.1106   51.7070 C   0  0  0  0  0  0  0  0  0  0  0  0
    2.2566   28.7240   48.8360 C   0  0  0  0  0  0  0  0  0  0  0  0
    1.1114   30.4712   47.6872 C   0  0  0  0  0  0  0  0  0  0  0  0
    5.0509   29.3095   54.2016 C   0  0  0  0  0  0  0  0  0  0  0  0
    4.8091   32.2572   55.4970 S   0  0  0  0  0  0  0  0  0  0  0  0
    7.3147   25.0533   46.8021 O   0  0  0  0  0  0  0  0  0  0  0  0
    4.4021   26.9747   53.7082 O   0  0  0  0  0  0  0  0  0  0  0  0
    1.6829   27.3856   46.6671 C   0  0  0  0  0  0  0  0  0  0  0  0
    6.3857   24.5222   45.7400 P   0  0  0  0  0  0  0  0  0  0  0  0
    4.5034   26.3591   48.4243 N   0  0  0  0  0  0  0  0  0  0  0  0
    4.6922   24.9921   46.3545 C   0  0  0  0  0  0  0  0  0  0  0  0
    1.8213   29.1671   47.6765 C   0  0  0  0  0  0  0  0  0  0  0  0
    4.8205   26.3806   47.0939 C   0  0  0  0  0  0  0  0  0  0  0  0
    5.5571   31.2488   53.9771 P   0  0  0  0  0  0  0  0  0  0  0  0
    5.1733   27.4144   46.4885 O   0  0  0  0  0  0  0  0  0  0  0  0
    3.6904   24.7077   45.4755 O   0  0  0  0  0  0  0  0  0  0  0  0
    4.1349   28.3434   53.1792 C   0  0  0  0  0  0  0  0  0  0  0  0
    3.8421   27.2986   50.8624 C   0  0  0  0  0  0  0  0  0  0  0  0
    3.9400   28.8234   48.8995 O   0  0  0  0  0  0  0  0  0  0  0  0
    5.2123   29.3802   51.3295 O   0  0  0  0  0  0  0  0  0  0  0  0
   -0.4572   27.5403   46.3573 C   0  0  0  0  0  0  0  0  0  0  0  0
    4.2495   27.5111   49.2991 C   0  0  0  0  0  0  0  0  0  0  0  0
  1 13  1  0
  2 22  1  0
  3 13  2  0
  4 12  1  0
  4 16  1  0
  4 25  1  0
  5 21  1  0
  5 22  1  0
  5 24  1  0
  6 16  1  0
  6 23  1  0
  7 16  1  0
  8 18  1  0
  8 21  1  0
  9 18  1  0
 10 13  1  0
 11 21  1  0
 13 15  1  0
 14 17  1  0
 14 26  1  0
 15 17  1  0
 15 20  1  0
 17 19  2  0
 22 26  1  0
 23 26  1  0
M  END
$$$$
