
     RDKit          3D

 24 26  0  0  0  0  0  0  0  0999 V2000
   27.9405   27.6624   33.3689 N   0  0  0  0  0  0  0  0  0  0  0  0
   32.4029   27.6658   30.8911 C   0  0  0  0  0  0  0  0  0  0  0  0
   33.4761   29.3428   41.5190 O   0  0  0  0  0  0  0  0  0  0  0  0
   31.6892   29.3270   38.6318 C   0  0  0  0  0  0  0  0  0  0  0  0
   31.5134   27.4812   37.3210 C   0  0  0  0  0  0  0  0  0  0  0  0
   27.1354   27.7243   34.5448 N   0  0  0  0  0  0  0  0  0  0  0  0
   32.8485   27.7105   37.6167 C   0  0  0  0  0  0  0  0  0  0  0  0
   34.1788   29.4105   38.8875 C   0  0  0  0  0  0  0  0  0  0  0  0
   31.0390   26.3575   36.5224 C   0  0  0  0  0  0  0  0  0  0  0  0
   29.3734   27.7531   35.2159 C   0  0  1  0  0  0  0  0  0  0  0  0
   30.0482   27.4973   31.4021 C   0  0  0  0  0  0  0  0  0  0  0  0
   35.8595   29.5797   40.9747 O   0  0  0  0  0  0  0  0  0  0  0  0
   31.6437   27.8823   33.1789 C   0  0  0  0  0  0  0  0  0  0  0  0
   29.1944   27.7008   33.7188 C   0  0  0  0  0  0  0  0  0  0  0  0
   32.6809   27.8657   32.2425 C   0  0  0  0  0  0  0  0  0  0  0  0
   32.9420   28.8243   38.4064 N   0  0  0  0  0  0  0  0  0  0  0  0
   31.6129   25.2716   36.5143 O   0  0  0  0  0  0  0  0  0  0  0  0
   31.0873   27.4832   30.4700 C   0  0  0  0  0  0  0  0  0  0  0  0
   30.7843   28.5015   38.0010 C   0  0  0  0  0  0  0  0  0  0  0  0
   34.7748   27.3004   40.6665 O   0  0  0  0  0  0  0  0  0  0  0  0
   30.3218   27.6924   32.7620 C   0  0  0  0  0  0  0  0  0  0  0  0
   34.5616   28.7660   40.4873 P   0  0  0  0  0  0  0  0  0  0  0  0
   27.9221   27.7897   35.5685 C   0  0  0  0  0  0  0  0  0  0  0  0
   29.9288   26.5177   35.7373 N   0  0  0  0  0  0  0  0  0  0  0  0
  1  6  1  0
  1 14  2  0
  2 15  2  0
  2 18  1  0
  3 22  1  0
  4 16  1  0
  4 19  2  0
  5  7  2  0
  5  9  1  0
  5 19  1  0
  6 23  2  0
  7 16  1  0
  8 16  1  0
  8 22  1  0
  9 17  2  0
  9 24  1  0
 10 14  1  0
 10 23  1  0
 10 24  1  6
 11 18  2  0
 11 21  1  0
 12 22  1  0
 13 15  1  0
 13 21  2  0
 14 21  1  0
 20 22  2  0
M  END
$$$$
