
     RDKit          3D

 22 25  0  0  0  0  0  0  0  0999 V2000
  -22.9113   14.4968   -2.6228 O   0  0  0  0  0  0  0  0  0  0  0  0
  -22.3367   13.6372   -0.6071 O   0  0  0  0  0  0  0  0  0  0  0  0
  -23.1593   13.9263   -1.5334 C   0  0  0  0  0  0  0  0  0  0  0  0
  -26.4209   14.9650   -2.1620 C   0  0  0  0  0  0  0  0  0  0  0  0
  -25.8228   12.7294   -2.9233 C   0  0  0  0  0  0  0  0  0  0  0  0
  -23.6660   10.5260   -1.2209 C   0  0  0  0  0  0  0  0  0  0  0  0
  -26.2722    8.7588   -3.9306 C   0  0  0  0  0  0  0  0  0  0  0  0
  -25.8238   16.5749   -2.7013 Cl  0  0  0  0  0  0  0  0  0  0  0  0
  -25.3147    6.6309   -3.4979 C   0  0  0  0  0  0  0  0  0  0  0  0
  -24.5930   13.3906    0.1358 O   0  0  0  0  0  0  0  0  0  0  0  0
  -24.4674    8.6281   -2.4443 C   0  0  0  0  0  0  0  0  0  0  0  0
  -24.6327   11.2234   -1.9253 C   0  0  0  0  0  0  0  0  0  0  0  0
  -25.6983   14.6401   -1.1621 C   0  0  0  0  0  0  0  0  0  0  0  0
  -24.9046   12.5238   -2.0129 N   0  0  0  0  0  0  0  0  0  0  0  0
  -26.2038   14.0872   -3.3621 C   0  0  0  0  0  0  0  0  0  0  0  0
  -23.5676    9.2016   -1.4602 C   0  0  0  0  0  0  0  0  0  0  0  0
  -25.4067    9.3913   -3.0758 C   0  0  0  0  0  0  0  0  0  0  0  0
  -24.4479    7.2560   -2.6503 C   0  0  0  0  0  0  0  0  0  0  0  0
  -24.6113   13.6190   -1.2916 C   0  0  0  0  0  0  0  0  0  0  0  0
  -26.2395    7.4080   -4.1348 C   0  0  0  0  0  0  0  0  0  0  0  0
  -25.4006   10.6543   -2.9006 C   0  0  0  0  0  0  0  0  0  0  0  0
  -26.1866   11.5947   -3.4673 N   0  0  0  0  0  0  0  0  0  0  0  0
  1  3  2  0
  2  3  1  0
  3 19  1  0
  4  8  1  0
  4 13  1  0
  4 15  1  0
  5 14  1  0
  5 15  1  0
  5 22  2  0
  6 12  1  0
  6 16  2  0
  7 17  2  0
  7 20  1  0
  9 18  1  0
  9 20  2  0
 10 19  1  0
 11 16  1  0
 11 17  1  0
 11 18  2  0
 12 14  1  0
 12 21  2  0
 13 19  1  0
 14 19  1  0
 17 21  1  0
 21 22  1  0
M  END
$$$$
