
     RDKit          3D

 25 29  0  0  0  0  0  0  0  0999 V2000
  -23.7750   15.7547   -1.3735 C   0  0  0  0  0  0  0  0  0  0  0  0
  -24.9723   10.5143   -2.1676 C   0  0  0  0  0  0  0  0  0  0  0  0
  -24.9466   10.2290   -3.4901 C   0  0  0  0  0  0  0  0  0  0  0  0
  -26.4317    8.4035   -3.8541 C   0  0  0  0  0  0  0  0  0  0  0  0
  -25.1478    8.9284   -3.8102 C   0  0  0  0  0  0  0  0  0  0  0  0
  -24.8695   12.1719   -0.6138 C   0  0  0  0  0  0  0  0  0  0  0  0
  -26.6459    7.0739   -4.1834 C   0  0  0  0  0  0  0  0  0  0  0  0
  -24.5022   12.7780   -2.7599 N   0  0  0  0  0  0  0  0  0  0  0  0
  -24.7348   13.5217   -0.3531 C   0  0  0  0  0  0  0  0  0  0  0  0
  -25.2282    9.9522   -0.0024 C   0  0  0  0  0  0  0  0  0  0  0  0
  -23.4032   13.7259   -2.3992 C   0  0  0  0  0  0  0  0  0  0  0  0
  -24.2548    6.8048   -4.4036 C   0  0  0  0  0  0  0  0  0  0  0  0
  -24.0646    8.1342   -4.0786 C   0  0  0  0  0  0  0  0  0  0  0  0
  -26.0418   14.2046   -0.8248 C   0  0  0  0  0  0  0  0  0  0  0  0
  -21.9695   13.3986   -2.2494 C   0  0  0  0  0  0  0  0  0  0  0  0
  -24.7671   11.8069   -1.8358 C   0  0  0  0  0  0  0  0  0  0  0  0
  -24.4872   12.3964   -4.0479 C   0  0  0  0  0  0  0  0  0  0  0  0
  -25.9318   14.9549   -2.1538 C   0  0  0  0  0  0  0  0  0  0  0  0
  -25.5487    6.2738   -4.4640 C   0  0  0  0  0  0  0  0  0  0  0  0
  -25.0262   16.1611   -2.0384 C   0  0  0  0  0  0  0  0  0  0  0  0
  -22.6274   16.1364   -2.2429 O   0  0  0  0  0  0  0  0  0  0  0  0
  -25.1512    9.5848   -1.1926 N   0  0  0  0  0  0  0  0  0  0  0  0
  -25.1034   11.2771    0.2936 C   0  0  0  0  0  0  0  0  0  0  0  0
  -23.7768   14.3271   -1.1347 N   0  0  0  0  0  0  0  0  0  0  0  0
  -24.7455   11.1630   -4.4087 N   0  0  0  0  0  0  0  0  0  0  0  0
  1 20  1  0
  1 21  1  0
  1 24  1  0
  2  3  4  0
  2 16  4  0
  2 22  4  0
  3  5  1  0
  3 25  4  0
  4  5  4  0
  4  7  4  0
  5 13  4  0
  6  9  1  0
  6 16  4  0
  6 23  4  0
  7 19  4  0
  8 11  1  0
  8 16  4  0
  8 17  4  0
  9 14  1  0
  9 24  1  0
 10 22  4  0
 10 23  4  0
 11 15  1  0
 11 24  1  0
 12 13  4  0
 12 19  4  0
 14 18  1  0
 17 25  4  0
 18 20  1  0
M  END
$$$$
