
     RDKit          3D

 16 17  0  0  0  0  0  0  0  0999 V2000
  -22.5530   14.8613   -2.4270 O   0  0  0  0  0  0  0  0  0  0  0  0
  -25.4329   13.1940   -0.2914 C   0  0  0  0  0  0  0  0  0  0  0  0
  -24.3064    9.7622   -3.9506 C   0  0  0  0  0  0  0  0  0  0  0  0
  -23.5523   12.5112   -1.5520 C   0  0  0  0  0  0  0  0  0  0  0  0
  -24.5684   11.5181   -2.0919 C   0  0  0  0  0  0  0  0  0  0  0  0
  -25.8593    8.2500   -2.9029 C   0  0  0  0  0  0  0  0  0  0  0  0
  -23.6977   10.7864   -3.6438 N   0  0  0  0  0  0  0  0  0  0  0  0
  -24.9112   15.5061   -1.7640 C   0  0  0  0  0  0  0  0  0  0  0  0
  -25.3934   11.6684   -0.0957 C   0  0  0  0  0  0  0  0  0  0  0  0
  -23.9527   13.4132   -0.9323 C   0  0  0  0  0  0  0  0  0  0  0  0
  -24.7929   10.0055   -2.0245 C   0  0  0  0  0  0  0  0  0  0  0  0
  -24.6818    9.0859   -2.7570 C   0  0  0  0  0  0  0  0  0  0  0  0
  -23.7501   14.6907   -1.8068 C   0  0  0  0  0  0  0  0  0  0  0  0
  -25.4078   10.0572   -1.2907 C   0  0  0  0  0  0  0  0  0  0  0  0
  -25.0630   11.9895   -3.2822 C   0  0  0  0  0  0  0  0  0  0  0  0
  -22.3266   11.9216   -1.0471 C   0  0  0  0  0  0  0  0  0  0  0  0
  1 13  2  0
  2  9  1  0
  2 10  1  0
  3  7  1  0
  3 12  1  0
  4  5  1  0
  4 10  1  0
  4 16  1  0
  5  7  1  0
  5  9  1  0
  5 11  1  0
  5 15  1  0
  6 12  1  0
  8 13  1  0
 10 13  1  0
 11 12  1  0
 11 14  1  0
M  END
$$$$
