
     RDKit          3D

 20 22  0  0  0  0  0  0  0  0999 V2000
  -24.1537   11.3349   -1.6915 N   0  0  0  0  0  0  0  0  0  0  0  0
  -25.5147    9.4478   -5.2338 F   0  0  0  0  0  0  0  0  0  0  0  0
  -21.7969   12.0565   -2.3054 C   0  0  0  0  0  0  0  0  0  0  0  0
  -25.0830   15.1476   -2.3229 N   0  0  0  0  0  0  0  0  0  0  0  0
  -24.9641    8.7764   -1.6504 C   0  0  0  0  0  0  0  0  0  0  0  0
  -22.7191   12.0638   -0.1084 C   0  0  0  0  0  0  0  0  0  0  0  0
  -24.9581   13.8812   -1.8908 C   0  0  0  0  0  0  0  0  0  0  0  0
  -24.4372   10.8729   -2.9136 C   0  0  0  0  0  0  0  0  0  0  0  0
  -24.9499    9.5015   -2.8591 C   0  0  0  0  0  0  0  0  0  0  0  0
  -22.9969   12.3421   -1.5059 C   0  0  0  0  0  0  0  0  0  0  0  0
  -25.9614    6.8871   -2.7936 C   0  0  0  0  0  0  0  0  0  0  0  0
  -23.5737   13.6171   -1.9511 C   0  0  0  0  0  0  0  0  0  0  0  0
  -23.8740   15.6080   -2.6184 N   0  0  0  0  0  0  0  0  0  0  0  0
  -25.4766    8.8575   -4.0459 C   0  0  0  0  0  0  0  0  0  0  0  0
  -25.9778    7.5748   -3.9852 C   0  0  0  0  0  0  0  0  0  0  0  0
  -25.4734    7.4804   -1.6396 C   0  0  0  0  0  0  0  0  0  0  0  0
  -24.2910   11.4945   -3.9521 O   0  0  0  0  0  0  0  0  0  0  0  0
  -25.3654   11.7887   -0.9467 C   0  0  0  0  0  0  0  0  0  0  0  0
  -25.9791   13.0801   -1.4579 C   0  0  0  0  0  0  0  0  0  0  0  0
  -23.0057   14.6787   -2.4052 N   0  0  0  0  0  0  0  0  0  0  0  0
  1  8  1  0
  1 10  1  0
  1 18  1  0
  2 14  1  0
  3 10  1  0
  4  7  2  0
  4 13  1  0
  5  9  2  0
  5 16  1  0
  6 10  1  0
  7 12  1  0
  7 19  1  0
  8  9  1  0
  8 17  2  0
  9 14  1  0
 10 12  1  0
 11 15  1  0
 11 16  2  0
 12 20  1  0
 13 20  2  0
 14 15  2  0
 18 19  1  0
M  END
$$$$
