
     RDKit          3D

 23 25  0  0  0  0  0  0  0  0999 V2000
   -9.1391   32.6450   -1.8989 N   0  0  0  0  0  0  0  0  0  0  0  0
   -8.3080   28.4939   -5.5109 C   0  0  0  0  0  0  0  0  0  0  0  0
  -12.3140   33.0623    0.5309 C   0  0  0  0  0  0  0  0  0  0  0  0
  -11.1405   33.7134    0.8327 C   0  0  0  0  0  0  0  0  0  0  0  0
  -10.9427   34.5602    2.0038 O   0  0  0  0  0  0  0  0  0  0  0  0
   -4.8452   28.9102   -4.4971 C   0  0  0  0  0  0  0  0  0  0  0  0
   -8.3514   29.5825   -4.6145 C   0  0  0  0  0  0  0  0  0  0  0  0
   -6.1547   28.9625   -4.7321 C   0  0  0  0  0  0  0  0  0  0  0  0
  -13.3401   33.2267    1.3580 O   0  0  0  0  0  0  0  0  0  0  0  0
   -6.4916   30.7980   -3.3220 C   0  0  0  0  0  0  0  0  0  0  0  0
  -12.5059   32.2747   -0.5963 C   0  0  0  0  0  0  0  0  0  0  0  0
   -5.1708   30.7539   -2.9980 C   0  0  0  0  0  0  0  0  0  0  0  0
  -11.4715   32.0926   -1.4775 C   0  0  0  0  0  0  0  0  0  0  0  0
   -6.9773   28.1405   -5.5856 C   0  0  0  0  0  0  0  0  0  0  0  0
   -7.3350   31.6675   -2.8182 N   0  0  0  0  0  0  0  0  0  0  0  0
   -6.5108   27.0877   -6.4714 C   0  0  0  0  0  0  0  0  0  0  0  0
   -8.6469   30.5726   -1.4019 O   0  0  0  0  0  0  0  0  0  0  0  0
   -7.0442   29.8379   -4.1624 C   0  0  0  0  0  0  0  0  0  0  0  0
   -8.3848   31.5445   -2.0243 C   0  0  0  0  0  0  0  0  0  0  0  0
  -10.0883   33.5483   -0.0056 C   0  0  0  0  0  0  0  0  0  0  0  0
   -5.1775   27.3477   -6.8057 O   0  0  0  0  0  0  0  0  0  0  0  0
  -10.2780   32.7388   -1.1324 C   0  0  0  0  0  0  0  0  0  0  0  0
   -4.3432   29.8202   -3.5863 C   0  0  0  0  0  0  0  0  0  0  0  0
  1 19  1  0
  1 22  1  0
  2  7  1  0
  2 14  2  0
  3  4  2  0
  3  9  1  0
  3 11  1  0
  4  5  1  0
  4 20  1  0
  6  8  2  0
  6 23  1  0
  7 18  2  0
  8 14  1  0
  8 18  1  0
 10 12  1  0
 10 15  2  3
 10 18  1  0
 11 13  2  0
 12 23  2  0
 13 22  1  0
 14 16  1  0
 15 19  1  0
 16 21  1  0
 17 19  2  0
 20 22  2  0
M  END
