
     RDKit          3D

 24 24  0  0  0  0  0  0  0  0999 V2000
    6.7336    4.6770   23.9958 C   0  0  0  0  0  0  0  0  0  0  0  0
    5.4719    4.2068   23.4424 C   0  0  0  0  0  0  0  0  0  0  0  0
    0.9247    5.2330   24.4618 C   0  0  0  0  0  0  0  0  0  0  0  0
    6.7549    4.5730   25.4941 C   0  0  0  0  0  0  0  0  0  0  0  0
    8.5514    2.8224   25.3113 C   0  0  0  0  0  0  0  0  0  0  0  0
    7.2423    2.8106   27.2411 O   0  0  0  0  0  0  0  0  0  0  0  0
    7.2112    3.1872   25.8403 C   0  0  0  0  0  0  0  0  0  0  0  0
    8.9468    1.5145   24.9813 C   0  0  0  0  0  0  0  0  0  0  0  0
    3.2727    4.9754   24.2423 N   0  0  0  0  0  0  0  0  0  0  0  0
    4.4581    5.3131   23.6840 C   0  0  0  0  0  0  0  0  0  0  0  0
   13.7657    0.2338   23.4068 C   0  0  0  0  0  0  0  0  0  0  0  0
   10.7996    3.6927   24.7416 C   0  0  0  0  0  0  0  0  0  0  0  0
   14.6736   -0.4486   23.6834 N   0  0  0  0  0  0  0  0  0  0  0  0
    0.2341    5.0994   23.3586 O   0  0  0  0  0  0  0  0  0  0  0  0
   12.9137    3.1982   21.9182 O   0  0  0  0  0  0  0  0  0  0  0  0
    0.5046    4.7389   25.5215 O   0  0  0  0  0  0  0  0  0  0  0  0
    2.2583    5.9721   24.4504 C   0  0  0  0  0  0  0  0  0  0  0  0
    9.5170    3.8701   25.2520 C   0  0  0  0  0  0  0  0  0  0  0  0
   12.4896    2.1857   23.8635 N   0  0  0  0  0  0  0  0  0  0  0  0
   12.8995    3.2039   23.0582 C   0  0  0  0  0  0  0  0  0  0  0  0
    4.6568    6.5105   23.3609 O   0  0  0  0  0  0  0  0  0  0  0  0
   12.7564    1.0002   23.1033 C   0  0  0  0  0  0  0  0  0  0  0  0
   10.2603    1.2622   24.5013 C   0  0  0  0  0  0  0  0  0  0  0  0
   11.1924    2.3865   24.3710 C   0  0  0  0  0  0  0  0  0  0  0  0
  1  2  1  0
  1  4  1  0
  2 10  1  0
  3 14  1  0
  3 16  2  0
  3 17  1  0
  4  7  1  0
  5  7  1  0
  5  8  1  0
  5 18  2  0
  6  7  1  0
  8 23  2  0
  9 10  1  0
  9 17  1  0
 10 21  2  0
 11 13  3  0
 11 22  1  0
 12 18  1  0
 12 24  2  0
 15 20  2  0
 19 20  1  0
 19 22  1  0
 19 24  1  0
 23 24  1  0
M  END
$$$$
