
     RDKit          3D

 23 26  0  0  0  0  0  0  0  0999 V2000
  104.6563    3.7808  -92.4041 O   0  0  0  0  0  0  0  0  0  0  0  0
   99.1225    7.3026  -90.8128 C   0  0  0  0  0  0  0  0  0  0  0  0
  100.8764    4.1578  -92.5890 C   0  0  1  0  0  0  0  0  0  0  0  0
   97.5457    5.9445  -90.1324 C   0  0  0  0  0  0  0  0  0  0  0  0
  105.2594    5.8197  -91.2812 C   0  0  0  0  0  0  0  0  0  0  0  0
   98.8007    5.9741  -90.6134 N   0  0  0  0  0  0  0  0  0  0  0  0
   96.9776    7.1854  -89.9395 N   0  0  0  0  0  0  0  0  0  0  0  0
   98.0893    8.0705  -90.4102 C   0  0  0  0  0  0  0  0  0  0  0  0
  107.1823    3.3084  -92.3129 O   0  0  0  0  0  0  0  0  0  0  0  0
   99.6139    4.8252  -90.8396 C   0  0  2  0  0  0  0  0  0  0  0  0
  101.8455    4.2397  -91.3716 C   0  0  1  0  0  0  0  0  0  0  0  0
   99.8458    2.8985  -92.8833 O   0  0  0  0  0  0  0  0  0  0  0  0
  105.7467    2.5748  -92.2206 P   0  0  0  0  0  0  0  0  0  0  0  0
   97.9137    9.4566  -90.3749 N   0  0  0  0  0  0  0  0  0  0  0  0
  102.9265    5.1265  -91.5973 C   0  0  0  0  0  0  0  0  0  0  0  0
  105.5234    1.8079  -90.9834 O   0  0  0  0  0  0  0  0  0  0  0  0
   99.0375    9.9779  -90.8526 C   0  0  0  0  0  0  0  0  0  0  0  0
  104.3218    4.6666  -91.3382 C   0  0  1  0  0  0  0  0  0  0  0  0
  100.9708    5.0185  -90.5238 O   0  0  0  0  0  0  0  0  0  0  0  0
  100.3187    7.8483  -91.2956 N   0  0  0  0  0  0  0  0  0  0  0  0
   99.6558    4.3732  -92.2769 C   0  0  2  0  0  0  0  0  0  0  0  0
  100.1805    9.2259  -91.2818 C   0  0  0  0  0  0  0  0  0  0  0  0
  105.5417    1.7592  -93.5673 O   0  0  0  0  0  0  0  0  0  0  0  0
  1 13  1  0
  1 18  1  0
  2  6  1  0
  2  8  1  0
  2 20  2  0
  3 11  1  0
  3 12  1  1
  3 21  1  0
  4  6  1  0
  4  7  2  0
 18  5  1  6
 10  6  1  6
  7  8  1  0
  8 14  2  0
  9 13  2  0
 10 19  1  0
 10 21  1  0
 11 15  1  6
 11 19  1  0
 21 12  1  1
 13 16  1  0
 13 23  1  0
 14 17  1  0
 15 18  1  0
 17 22  2  0
 20 22  1  0
M  END
