
     RDKit          3D

 27 29  0  0  0  0  0  0  0  0999 V2000
  -25.9821    5.0349   -4.6028 C   0  0  0  0  0  0  0  0  0  0  0  0
  -25.8779    3.7521   -5.0180 O   0  0  0  0  0  0  0  0  0  0  0  0
  -26.3412   12.9546   -3.4324 O   0  0  0  0  0  0  0  0  0  0  0  0
  -24.7520    9.9557   -4.1688 C   0  0  0  0  0  0  0  0  0  0  0  0
  -25.0719   12.5563    1.0282 C   0  0  0  0  0  0  0  0  0  0  0  0
  -24.6315    5.6587   -4.3553 C   0  0  0  0  0  0  0  0  0  0  0  0
  -24.6673    7.1672   -4.2960 C   0  0  0  0  0  0  0  0  0  0  0  0
  -23.8016   14.9077   -1.7263 C   0  0  0  0  0  0  0  0  0  0  0  0
  -25.3201   12.4372   -1.4348 N   0  0  0  0  0  0  0  0  0  0  0  0
  -23.1548   11.7675   -0.4107 C   0  0  0  0  0  0  0  0  0  0  0  0
  -24.8262    7.2783   -6.6639 O   0  0  0  0  0  0  0  0  0  0  0  0
  -24.8043    9.3116   -5.4073 C   0  0  0  0  0  0  0  0  0  0  0  0
  -25.7921   11.0410   -1.5161 C   0  0  0  0  0  0  0  0  0  0  0  0
  -25.6378   13.2930   -2.4795 C   0  0  0  0  0  0  0  0  0  0  0  0
  -23.8978   14.2612   -0.3306 C   0  0  2  0  0  0  0  0  0  0  0  0
  -22.6673   14.4468    0.3737 O   0  0  0  0  0  0  0  0  0  0  0  0
  -24.3623   12.7562   -0.3433 C   0  0  2  0  0  0  0  0  0  0  0  0
  -24.6292    7.8313   -3.0549 C   0  0  0  0  0  0  0  0  0  0  0  0
  -24.7676    9.0313   -0.4028 C   0  0  0  0  0  0  0  0  0  0  0  0
  -23.2531   10.6996   -1.5104 C   0  0  0  0  0  0  0  0  0  0  0  0
  -23.5263   16.4217   -1.5743 C   0  0  0  0  0  0  0  0  0  0  0  0
  -24.7671    7.9249   -5.4625 C   0  0  0  0  0  0  0  0  0  0  0  0
  -22.6775   14.3318   -2.6025 C   0  0  0  0  0  0  0  0  0  0  0  0
  -24.6313    9.9942   -1.6106 C   0  0  2  0  0  0  0  0  0  0  0  0
  -25.1650   14.7262   -2.3934 C   0  0  0  0  0  0  0  0  0  0  0  0
  -27.0862    5.5202   -4.4185 O   0  0  0  0  0  0  0  0  0  0  0  0
  -24.6771    9.2354   -2.9609 C   0  0  0  0  0  0  0  0  0  0  0  0
  1  2  1  0
  1  6  1  0
  1 26  2  0
  3 14  2  0
  4 12  2  0
  4 27  1  0
 17  5  1  1
  6  7  1  0
  7 18  1  0
  7 22  2  0
  8 15  1  0
  8 21  1  0
  8 23  1  0
  8 25  1  0
  9 13  1  0
  9 14  1  0
  9 17  1  0
 10 17  1  0
 10 20  1  0
 11 22  1  0
 12 22  1  0
 13 24  1  0
 14 25  1  0
 15 16  1  6
 15 17  1  0
 18 27  2  0
 24 19  1  1
 20 24  1  0
 24 27  1  0
M  END
$$$$
