
     RDKit          3D

 31 34  0  0  0  0  0  0  0  0999 V2000
   32.8324   29.7397    2.6068 N   0  0  0  0  0  0  0  0  0  0  0  0
   33.1129   28.9149    1.5522 C   0  0  0  0  0  0  0  0  0  0  0  0
   32.3457   30.3917   -4.7590 C   0  0  0  0  0  0  0  0  0  0  0  0
   33.3873   29.4487   -4.5925 N   0  0  0  0  0  0  0  0  0  0  0  0
   34.0371   27.4798   -3.6932 N   0  0  0  0  0  0  0  0  0  0  0  0
   30.8599   32.4532   -7.3984 O   0  0  0  0  0  0  0  0  0  0  0  0
   31.5916   30.7658   -3.6251 C   0  0  0  0  0  0  0  0  0  0  0  0
   32.1163   31.0131   -6.0115 C   0  0  0  0  0  0  0  0  0  0  0  0
   33.4759   28.6431   -3.4770 C   0  0  0  0  0  0  0  0  0  0  0  0
   33.7333   27.8740    1.7258 O   0  0  0  0  0  0  0  0  0  0  0  0
   32.9096   25.7326   -2.4359 C   0  0  0  0  0  0  0  0  0  0  0  0
   35.3392   24.9964   -1.2793 C   0  0  0  0  0  0  0  0  0  0  0  0
   34.1735   24.3159   -0.9255 C   0  0  0  0  0  0  0  0  0  0  0  0
   35.2841   26.0471   -2.2028 C   0  0  0  0  0  0  0  0  0  0  0  0
   32.9628   24.6802   -1.5193 C   0  0  0  0  0  0  0  0  0  0  0  0
   34.9063   21.9578    1.7319 C   0  0  0  0  0  0  0  0  0  0  0  0
   34.6405   21.0915    2.5205 C   0  0  0  0  0  0  0  0  0  0  0  0
   33.2943   28.7776   -0.9232 C   0  0  0  0  0  0  0  0  0  0  0  0
   29.7980   33.3826   -7.5720 C   0  0  0  0  0  0  0  0  0  0  0  0
   30.5617   31.7030   -3.7831 C   0  0  0  0  0  0  0  0  0  0  0  0
   32.8949   29.1708   -2.2030 C   0  0  0  0  0  0  0  0  0  0  0  0
   34.0671   26.4427   -2.7607 C   0  0  0  0  0  0  0  0  0  0  0  0
   31.9333   30.1818   -2.3160 C   0  0  0  0  0  0  0  0  0  0  0  0
   34.0850   23.2755   -0.0424 O   0  0  0  0  0  0  0  0  0  0  0  0
   31.0590   31.9378   -6.1434 C   0  0  0  0  0  0  0  0  0  0  0  0
   30.2899   32.2733   -5.0280 C   0  0  0  0  0  0  0  0  0  0  0  0
   31.3087   30.7207   -1.2286 N   0  0  0  0  0  0  0  0  0  0  0  0
   32.9618   30.6496   -7.2081 C   0  0  0  0  0  0  0  0  0  0  0  0
   32.6850   29.3408    0.2005 C   0  0  0  0  0  0  0  0  0  0  0  0
   35.2315   23.0187    0.7666 C   0  0  0  0  0  0  0  0  0  0  0  0
   31.6843   30.2759   -0.0054 C   0  0  0  0  0  0  0  0  0  0  0  0
  1  2  1  0
  2 10  2  0
  2 29  1  0
  3  4  1  0
  3  7  1  0
  3  8  2  0
  4  9  1  0
  5  9  2  3
  5 22  1  0
  6 19  1  0
  6 25  1  0
  7 20  2  0
  7 23  1  0
  8 25  1  0
  8 28  1  0
  9 21  1  0
 11 15  2  0
 11 22  1  0
 12 13  2  0
 12 14  1  0
 13 15  1  0
 13 24  1  0
 14 22  2  0
 16 17  3  0
 16 30  1  0
 18 21  1  0
 18 29  2  0
 20 26  1  0
 21 23  2  0
 23 27  1  0
 24 30  1  0
 25 26  2  0
 27 31  2  0
 29 31  1  0
M  END
$$$$
