
     RDKit          3D

 30 34  0  0  0  0  0  0  0  0999 V2000
   32.0272   31.6922   -7.2412 O   0  0  0  0  0  0  0  0  0  0  0  0
   33.2399   20.9628    1.1803 C   0  0  0  0  0  0  0  0  0  0  0  0
   33.8569   28.9723    2.0380 C   0  0  2  0  0  0  0  0  0  0  0  0
   33.3141   27.9723   -0.3574 C   0  0  0  0  0  0  0  0  0  0  0  0
   32.8167   27.3220   -2.6367 C   0  0  0  0  0  0  0  0  0  0  0  0
   33.0857   24.1876   -0.5478 C   0  0  0  0  0  0  0  0  0  0  0  0
   33.5762   30.6360   -5.6590 C   0  0  0  0  0  0  0  0  0  0  0  0
   32.9300   21.9908   -1.0135 N   0  0  0  0  0  0  0  0  0  0  0  0
   33.6583   31.2146    1.2654 C   0  0  0  0  0  0  0  0  0  0  0  0
   33.8692   30.4584    2.3535 C   0  0  0  0  0  0  0  0  0  0  0  0
   32.9636   31.4775   -8.2879 C   0  0  0  0  0  0  0  0  0  0  0  0
   33.0364   29.7448   -2.0115 C   0  0  0  0  0  0  0  0  0  0  0  0
   30.2215   33.3155   -5.2710 C   0  0  0  0  0  0  0  0  0  0  0  0
   33.3098   26.6037   -0.0030 C   0  0  0  0  0  0  0  0  0  0  0  0
   33.1442   22.1458    0.2971 C   0  0  0  0  0  0  0  0  0  0  0  0
   33.0767   25.5919   -0.9466 C   0  0  0  0  0  0  0  0  0  0  0  0
   32.8934   23.2691   -1.5395 O   0  0  0  0  0  0  0  0  0  0  0  0
   31.3744   31.3469   -5.0016 C   0  0  0  0  0  0  0  0  0  0  0  0
   32.3541   31.2208   -5.9977 C   0  0  0  0  0  0  0  0  0  0  0  0
   35.2084   28.3496    2.3730 C   0  0  0  0  0  0  0  0  0  0  0  0
   30.1402   31.8902   -5.2641 O   0  0  0  0  0  0  0  0  0  0  0  0
   31.5876   30.8554   -3.7108 C   0  0  0  0  0  0  0  0  0  0  0  0
   33.0562   28.3507   -1.6978 C   0  0  0  0  0  0  0  0  0  0  0  0
   33.2211   30.7334   -1.0971 N   0  0  0  0  0  0  0  0  0  0  0  0
   33.5457   28.9922    0.5645 C   0  0  0  0  0  0  0  0  0  0  0  0
   32.8321   25.9723   -2.2686 C   0  0  0  0  0  0  0  0  0  0  0  0
   33.4645   30.3151    0.1449 C   0  0  0  0  0  0  0  0  0  0  0  0
   33.8001   30.1637   -4.3586 C   0  0  0  0  0  0  0  0  0  0  0  0
   33.2507   23.5123    0.6405 C   0  0  0  0  0  0  0  0  0  0  0  0
   32.8056   30.2535   -3.3718 C   0  0  0  0  0  0  0  0  0  0  0  0
  1 11  1  0
  1 19  1  0
  2 15  1  0
  3 10  1  0
  3 20  1  6
  3 25  1  0
  4 14  1  0
  4 23  1  0
  4 25  2  0
  5 23  1  0
  5 26  2  0
  6 16  1  0
  6 17  1  0
  6 29  2  0
  7 19  1  0
  7 28  2  0
  8 15  2  0
  8 17  1  0
  9 10  2  0
  9 27  1  0
 12 23  2  0
 12 24  1  0
 12 30  1  0
 13 21  1  0
 14 16  2  0
 15 29  1  0
 16 26  1  0
 18 19  2  0
 18 21  1  0
 18 22  1  0
 22 30  2  0
 24 27  2  0
 25 27  1  0
 28 30  1  0
M  END
$$$$
