
     RDKit          3D

 21 21  0  0  0  0  0  0  0  0999 V2000
   27.4386   12.5943   35.1097 C   0  0  0  0  0  0  0  0  0  0  0  0
   29.2328   12.9720   36.9377 C   0  0  0  0  0  0  0  0  0  0  0  0
   22.4715    9.0947   31.7246 C   0  0  0  0  0  0  0  0  0  0  0  0
   20.5156    7.1464   25.6303 P   0  0  0  0  0  0  0  0  0  0  0  0
   23.7968    8.8293   32.3653 C   0  0  2  0  0  0  0  0  0  0  0  0
   27.1616   11.0969   34.9487 C   0  0  0  0  0  0  0  0  0  0  0  0
   28.8987   12.9233   35.4439 C   0  0  0  0  0  0  0  0  0  0  0  0
   23.7804    7.8016   33.3653 O   0  0  0  0  0  0  0  0  0  0  0  0
   24.0243    9.1436   33.8223 C   0  0  1  0  0  0  0  0  0  0  0  0
   29.1938   11.6679   37.5814 N   0  0  0  0  0  0  0  0  0  0  0  0
   25.7139   10.8488   34.5076 C   0  0  0  0  0  0  0  0  0  0  0  0
   20.6997    7.4614   28.8442 O   0  0  0  0  0  0  0  0  0  0  0  0
   20.8540    8.3798   29.9253 C   0  0  0  0  0  0  0  0  0  0  0  0
   22.2090    8.1281   30.5734 C   0  0  0  0  0  0  0  0  0  0  0  0
   20.6120    5.7397   24.8307 O   0  0  0  0  0  0  0  0  0  0  0  0
   19.4361    7.6227   28.1861 C   0  0  0  0  0  0  0  0  0  0  0  0
   17.1682    7.7345   26.1294 C   0  0  0  0  0  0  0  0  0  0  0  0
   19.3450    6.6331   27.0134 C   0  0  1  0  0  0  0  0  0  0  0  0
   25.4679    8.7427   35.6555 O   0  0  0  0  0  0  0  0  0  0  0  0
   17.9057    6.4513   26.4981 C   0  0  0  0  0  0  0  0  0  0  0  0
   25.4015    9.3565   34.3711 C   0  0  1  0  0  0  0  0  0  0  0  0
  1  6  1  0
  1  7  1  0
  2  7  1  0
  2 10  1  0
  5  3  1  1
  3 14  1  0
  4 15  1  0
  4 18  1  0
  5  8  1  0
  5  9  1  0
  6 11  1  0
  9  8  1  1
  9 21  1  0
 11 21  1  0
 12 13  1  0
 12 16  1  0
 13 14  1  0
 18 16  1  1
 17 20  1  0
 18 20  1  0
 21 19  1  1
M  END
$$$$
