
     RDKit          3D

 29 30  0  0  0  0  0  0  0  0999 V2000
   37.5570    6.3053   -4.5505 C   0  0  0  0  0  0  0  0  0  0  0  0
   38.6168    6.6356   -3.8517 C   0  0  0  0  0  0  0  0  0  0  0  0
   37.2573    4.9503   -4.8525 C   0  0  0  0  0  0  0  0  0  0  0  0
   32.2692    1.8662   -7.7040 O   0  0  0  0  0  0  0  0  0  0  0  0
   29.1720    2.1885   -9.9495 P   0  0  0  0  0  0  0  0  0  0  0  0
   31.0137    2.8322   -4.6752 C   0  0  0  0  0  0  0  0  0  0  0  0
   27.6900    1.7023  -10.1937 C   0  0  0  0  0  0  0  0  0  0  0  0
   32.9228    3.4144   -6.1492 C   0  0  0  0  0  0  0  0  0  0  0  0
   30.7236    1.5643   -5.1364 O   0  0  0  0  0  0  0  0  0  0  0  0
   29.2758    3.5621  -10.6343 O   0  0  0  0  0  0  0  0  0  0  0  0
   39.4554    5.6440   -3.4406 C   0  0  0  0  0  0  0  0  0  0  0  0
   31.3859    4.1272   -7.8567 C   0  0  0  0  0  0  0  0  0  0  0  0
   36.1387    4.6322   -5.6838 N   0  0  0  0  0  0  0  0  0  0  0  0
   32.3876    3.4942   -4.9019 C   0  0  0  0  0  0  0  0  0  0  0  0
   38.0726    3.9938   -4.4161 C   0  0  0  0  0  0  0  0  0  0  0  0
   34.9748    4.2985   -5.3626 C   0  0  0  0  0  0  0  0  0  0  0  0
   29.9764    3.6098   -7.8429 C   0  0  0  0  0  0  0  0  0  0  0  0
   34.4481    4.4565   -4.1051 C   0  0  0  0  0  0  0  0  0  0  0  0
   34.2325    3.7780   -6.3605 C   0  0  0  0  0  0  0  0  0  0  0  0
   32.1210    3.1281   -7.1784 N   0  0  0  0  0  0  0  0  0  0  0  0
   27.5439    0.7014  -11.3126 N   0  0  0  0  0  0  0  0  0  0  0  0
   30.1352    3.5018   -4.0918 O   0  0  0  0  0  0  0  0  0  0  0  0
   30.1487    1.2562  -10.4693 O   0  0  0  0  0  0  0  0  0  0  0  0
   29.4447    2.3387   -8.3261 C   0  0  0  0  0  0  0  0  0  0  0  0
   39.1755    4.3206   -3.6877 C   0  0  0  0  0  0  0  0  0  0  0  0
   26.9341   -0.0580   -8.9370 O   0  0  0  0  0  0  0  0  0  0  0  0
   26.5501    1.6154   -8.0658 O   0  0  0  0  0  0  0  0  0  0  0  0
   26.9795    1.0376   -9.0521 C   0  0  0  0  0  0  0  0  0  0  0  0
   33.1555    4.0587   -3.9115 C   0  0  0  0  0  0  0  0  0  0  0  0
  1  2  1  0
  1  3  2  0
  2 11  2  0
  3 13  1  0
  3 15  1  0
  4 20  1  0
  5  7  1  0
  5 10  1  0
  5 23  2  0
  5 24  1  0
  6  9  2  0
  6 14  1  0
  6 22  1  0
  7 21  1  0
  7 28  1  0
  8 14  2  0
  8 19  1  0
  8 20  1  0
 11 25  1  0
 12 17  1  0
 12 20  1  0
 13 16  1  0
 14 29  1  0
 15 25  2  0
 16 18  1  0
 16 19  2  0
 17 24  1  0
 18 29  2  0
 26 28  2  0
 27 28  1  0
M  END
$$$$
