
     RDKit          3D

 27 28  0  0  0  0  0  0  0  0999 V2000
   33.5332    3.8408   -6.7429 C   0  0  0  0  0  0  0  0  0  0  0  0
   38.4856    4.1363   -3.7025 C   0  0  0  0  0  0  0  0  0  0  0  0
   36.7733    5.9808   -4.8666 C   0  0  0  0  0  0  0  0  0  0  0  0
   39.9698    5.8648   -3.4855 F   0  0  0  0  0  0  0  0  0  0  0  0
   28.1599    2.5760  -10.4135 C   0  0  0  0  0  0  0  0  0  0  0  0
   36.4003    4.6511   -4.6785 C   0  0  0  0  0  0  0  0  0  0  0  0
   29.3890    2.2154   -4.0864 O   0  0  0  0  0  0  0  0  0  0  0  0
   29.9693    3.7668   -9.7491 O   0  0  0  0  0  0  0  0  0  0  0  0
   30.8402    1.7805   -5.8360 C   0  0  0  0  0  0  0  0  0  0  0  0
   32.7858    4.2991   -4.5358 C   0  0  0  0  0  0  0  0  0  0  0  0
   30.5715    2.8444   -6.6474 N   0  0  0  0  0  0  0  0  0  0  0  0
   34.7947    3.9780   -6.3276 C   0  0  0  0  0  0  0  0  0  0  0  0
   31.1860    1.9358   -8.5495 O   0  0  0  0  0  0  0  0  0  0  0  0
   34.0872    4.4297   -4.1069 C   0  0  0  0  0  0  0  0  0  0  0  0
   31.1883    4.1037   -6.2931 C   0  0  0  0  0  0  0  0  0  0  0  0
   27.3972    1.8947   -8.1413 C   0  0  0  0  0  0  0  0  0  0  0  0
   30.4842    2.4653   -7.8675 C   0  0  0  0  0  0  0  0  0  0  0  0
   28.8396    0.5280   -5.3416 O   0  0  0  0  0  0  0  0  0  0  0  0
   28.5951    1.3441  -11.6994 S   0  0  0  0  0  0  0  0  0  0  0  0
   35.0779    4.2849   -5.0654 C   0  0  0  0  0  0  0  0  0  0  0  0
   28.5278    2.0033   -9.0721 C   0  0  0  0  0  0  0  0  0  0  0  0
   37.2340    3.7304   -4.1143 C   0  0  0  0  0  0  0  0  0  0  0  0
   38.8321    5.4802   -3.8643 C   0  0  0  0  0  0  0  0  0  0  0  0
   29.4031    3.0784   -8.6323 C   0  0  0  0  0  0  0  0  0  0  0  0
   38.0087    6.4389   -4.4569 C   0  0  0  0  0  0  0  0  0  0  0  0
   32.5195    4.0271   -5.8526 C   0  0  0  0  0  0  0  0  0  0  0  0
   29.5975    1.4375   -5.0174 C   0  0  0  0  0  0  0  0  0  0  0  0
  1 12  2  0
  1 26  1  0
  2 22  2  0
  2 23  1  0
  3  6  2  0
  3 25  1  0
  4 23  1  0
  5 19  1  0
  5 21  1  0
  6 20  1  0
  6 22  1  0
  7 27  1  0
  8 24  1  0
  9 11  1  0
  9 27  1  0
 10 14  1  0
 10 26  2  0
 11 15  1  0
 11 17  1  0
 12 20  1  0
 13 17  2  0
 14 20  2  0
 15 26  1  0
 16 21  1  0
 17 24  1  0
 18 27  2  0
 21 24  1  0
 23 25  2  0
M  END
$$$$
