
     RDKit          3D

 20 22  0  0  0  0  0  0  0  0999 V2000
   51.6176   15.7602   82.7684 O   0  0  0  0  0  0  0  0  0  0  0  0
   51.5709    9.8059   80.4703 C   0  0  0  0  0  0  0  0  0  0  0  0
   54.7755   18.3405   83.5710 C   0  0  0  0  0  0  0  0  0  0  0  0
   52.4349   17.7592   83.6752 C   0  0  0  0  0  0  0  0  0  0  0  0
   55.0583   12.3706   81.4441 C   0  0  0  0  0  0  0  0  0  0  0  0
   50.4781    9.9267   81.3223 C   0  0  0  0  0  0  0  0  0  0  0  0
   55.0440   17.1404   82.9068 C   0  0  0  0  0  0  0  0  0  0  0  0
   49.4874    9.0286   81.2540 F   0  0  0  0  0  0  0  0  0  0  0  0
   54.0099   16.2344   82.6216 C   0  0  0  0  0  0  0  0  0  0  0  0
   55.5351   14.7576   81.4579 N   0  0  0  0  0  0  0  0  0  0  0  0
   54.3456   14.9580   81.9155 C   0  0  0  0  0  0  0  0  0  0  0  0
   50.3975   10.9677   82.2395 C   0  0  0  0  0  0  0  0  0  0  0  0
   52.5430   11.7880   81.4632 C   0  0  0  0  0  0  0  0  0  0  0  0
   53.4719   18.6482   83.9557 C   0  0  0  0  0  0  0  0  0  0  0  0
   52.6080   10.7401   80.5366 C   0  0  0  0  0  0  0  0  0  0  0  0
   55.7735   13.5053   80.7501 C   0  0  0  0  0  0  0  0  0  0  0  0
   52.7018   16.5617   83.0113 C   0  0  0  0  0  0  0  0  0  0  0  0
   53.3154   14.0464   81.7907 N   0  0  0  0  0  0  0  0  0  0  0  0
   53.6228   12.8061   81.5578 C   0  0  0  0  0  0  0  0  0  0  0  0
   51.4305   11.9043   82.3096 C   0  0  0  0  0  0  0  0  0  0  0  0
  1 17  1  0
  2  6  1  0
  2 15  2  0
  3  7  1  0
  3 14  2  0
  4 14  1  0
  4 17  2  0
  5 16  1  0
  5 19  1  0
  6  8  1  0
  6 12  2  0
  7  9  2  0
  9 11  1  0
  9 17  1  0
 10 11  2  0
 10 16  1  0
 11 18  1  0
 12 20  1  0
 13 15  1  0
 13 19  1  0
 13 20  2  0
 18 19  2  0
M  END
$$$$
