
     RDKit          3D

 28 30  0  0  0  0  0  0  0  0999 V2000
    6.6390  -33.4427    8.5592 C   0  0  0  0  0  0  0  0  0  0  0  0
    8.2729  -37.7558    1.1390 C   0  0  0  0  0  0  0  0  0  0  0  0
    6.4854  -34.8443    8.6612 N   0  0  0  0  0  0  0  0  0  0  0  0
    6.5236  -40.4003    2.4427 C   0  0  0  0  0  0  0  0  0  0  0  0
    9.9253  -40.0459   -0.5694 C   0  0  0  0  0  0  0  0  0  0  0  0
    6.9695  -40.1155    1.3852 C   0  0  0  0  0  0  0  0  0  0  0  0
    5.1770  -36.7188    8.0898 C   0  0  0  0  0  0  0  0  0  0  0  0
    5.0823  -38.8117    4.2996 O   0  0  0  0  0  0  0  0  0  0  0  0
    6.4248  -38.0023   -0.8510 C   0  0  0  0  0  0  0  0  0  0  0  0
    8.6747  -40.6420   -0.1146 C   0  0  0  0  0  0  0  0  0  0  0  0
    5.9438  -35.2392    6.3397 C   0  0  0  0  0  0  0  0  0  0  0  0
    4.0308  -38.0973    4.8120 C   0  0  0  0  0  0  0  0  0  0  0  0
    9.8634  -40.7428    0.7808 C   0  0  0  0  0  0  0  0  0  0  0  0
    4.5969  -37.2184    5.7848 C   0  0  0  0  0  0  0  0  0  0  0  0
    7.8733  -35.2774    0.7593 C   0  0  0  0  0  0  0  0  0  0  0  0
    7.1122  -35.5053   -0.5300 C   0  0  0  0  0  0  0  0  0  0  0  0
    5.3136  -36.0552    5.3784 C   0  0  0  0  0  0  0  0  0  0  0  0
    5.0597  -40.7316    5.7728 C   0  0  0  0  0  0  0  0  0  0  0  0
    5.9752  -36.5489   -0.5638 C   0  0  0  0  0  0  0  0  0  0  0  0
    7.0176  -35.4804    9.8428 C   0  0  0  0  0  0  0  0  0  0  0  0
    8.9203  -36.3647    0.9976 C   0  0  0  0  0  0  0  0  0  0  0  0
    3.6909  -41.0223    6.2000 O   0  0  0  0  0  0  0  0  0  0  0  0
    4.9125  -40.2312    4.4085 C   0  0  0  0  0  0  0  0  0  0  0  0
    7.6739  -38.4600   -0.1002 C   0  0  0  0  0  0  0  0  0  0  0  0
    4.5371  -37.5306    7.1595 C   0  0  0  0  0  0  0  0  0  0  0  0
    7.5377  -39.8455    0.1967 N   0  0  0  0  0  0  0  0  0  0  0  0
    5.8982  -35.5786    7.7285 C   0  0  0  0  0  0  0  0  0  0  0  0
    6.1088  -40.9844    3.7674 C   0  0  0  0  0  0  0  0  0  0  0  0
  1  3  1  0
  2 21  1  0
  2 24  1  0
  3 20  1  0
  3 27  1  0
  4  6  3  0
  4 28  1  0
  5 10  1  0
  5 13  1  0
  6 26  1  0
  7 25  1  0
  7 27  2  0
  8 12  1  0
  8 23  1  0
  9 19  1  0
  9 24  1  0
 10 13  1  0
 10 26  1  0
 11 17  2  0
 11 27  1  0
 12 14  1  0
 14 17  1  0
 14 25  2  0
 15 16  1  0
 15 21  1  0
 16 19  1  0
 18 22  1  0
 18 23  1  0
 23 28  1  0
 24 26  1  0
M  END
$$$$
