
     RDKit          3D

 20 21  0  0  0  0  0  0  0  0999 V2000
    7.2878  -33.4117    8.5307 C   0  0  0  0  0  0  0  0  0  0  0  0
    6.5352  -38.4724    1.6868 C   0  0  0  0  0  0  0  0  0  0  0  0
    9.8808  -38.7672    1.6853 C   0  0  0  0  0  0  0  0  0  0  0  0
    7.5689  -36.1608    0.0871 C   0  0  0  0  0  0  0  0  0  0  0  0
    5.4300  -35.3129    6.1047 C   0  0  0  0  0  0  0  0  0  0  0  0
    9.1636  -40.3598   -0.0098 O   0  0  0  0  0  0  0  0  0  0  0  0
    6.9172  -38.9140   -0.7022 C   0  0  0  0  0  0  0  0  0  0  0  0
    8.3322  -37.3430    0.4288 N   0  0  0  0  0  0  0  0  0  0  0  0
    6.0970  -34.2127    6.5043 N   0  0  0  0  0  0  0  0  0  0  0  0
    6.5456  -34.4433    7.7797 C   0  0  0  0  0  0  0  0  0  0  0  0
    6.8101  -36.4532   -1.1315 C   0  0  0  0  0  0  0  0  0  0  0  0
    6.1058  -37.7680   -1.1969 C   0  0  0  0  0  0  0  0  0  0  0  0
    6.1725  -35.6416    8.1677 N   0  0  0  0  0  0  0  0  0  0  0  0
    9.2835  -37.3345    1.6012 C   0  0  0  0  0  0  0  0  0  0  0  0
    7.6210  -38.6044    0.6018 C   0  0  0  0  0  0  0  0  0  0  0  0
    4.8068  -37.5284    7.0966 C   0  0  0  0  0  0  0  0  0  0  0  0
    5.0027  -38.3440    8.3484 C   0  0  0  0  0  0  0  0  0  0  0  0
    5.4716  -36.1654    7.1064 C   0  0  0  0  0  0  0  0  0  0  0  0
    8.7080  -39.5951    1.0778 C   0  0  0  0  0  0  0  0  0  0  0  0
    4.9228  -39.7551    8.0865 N   0  0  0  0  0  0  0  0  0  0  0  0
  1 10  1  0
  2 15  1  0
  3 14  1  0
  3 19  1  0
  4  8  1  0
  4 11  1  0
  5  9  1  0
  5 18  2  0
  6 19  1  0
  7 12  1  0
  7 15  1  0
  8 14  1  0
  8 15  1  0
  9 10  1  0
 10 13  2  0
 11 12  1  0
 13 18  1  0
 15 19  1  0
 16 17  1  0
 16 18  1  0
 17 20  1  0
M  END
$$$$
