
     RDKit          3D

 22 22  0  0  0  0  0  0  0  0999 V2000
    6.5231  -34.6600    8.7448 C   0  0  0  0  0  0  0  0  0  0  0  0
    4.9226  -39.8335    5.5521 C   0  0  0  0  0  0  0  0  0  0  0  0
    4.6968  -38.4320    7.6281 C   0  0  0  0  0  0  0  0  0  0  0  0
    5.1454  -35.9856    7.0752 C   0  0  0  0  0  0  0  0  0  0  0  0
    6.7633  -36.4456   -0.6590 C   0  0  0  0  0  0  0  0  0  0  0  0
    8.1186  -33.0500    8.0973 O   0  0  0  0  0  0  0  0  0  0  0  0
    5.4172  -37.4841    1.3195 C   0  0  0  0  0  0  0  0  0  0  0  0
    4.5970  -39.9260    4.0623 C   0  0  0  0  0  0  0  0  0  0  0  0
    7.0009  -33.2991    8.9223 C   0  0  0  0  0  0  0  0  0  0  0  0
    6.3451  -35.0932    7.3148 C   0  0  0  0  0  0  0  0  0  0  0  0
    7.8955  -36.2938    0.3554 C   0  0  0  0  0  0  0  0  0  0  0  0
    5.9133  -37.7120   -0.1992 C   0  0  0  0  0  0  0  0  0  0  0  0
    7.8173  -38.8943    0.6610 C   0  0  0  0  0  0  0  0  0  0  0  0
    5.0119  -38.7637    2.0750 C   0  0  0  0  0  0  0  0  0  0  0  0
    4.6062  -38.4879    6.1250 C   0  0  0  0  0  0  0  0  0  0  0  0
    9.3108  -37.4697    1.8799 O   0  0  0  0  0  0  0  0  0  0  0  0
    4.8602  -37.0034    8.1565 C   0  0  0  0  0  0  0  0  0  0  0  0
    8.7419  -40.1432    0.6605 C   0  0  0  0  0  0  0  0  0  0  0  0
    6.7279  -38.9442   -0.3659 C   0  0  0  0  0  0  0  0  0  0  0  0
    5.5110  -39.2140    3.3471 O   0  0  0  0  0  0  0  0  0  0  0  0
    9.6603  -40.1628   -0.4446 O   0  0  0  0  0  0  0  0  0  0  0  0
    8.6535  -37.6584    0.5775 C   0  0  0  0  0  0  0  0  0  0  0  0
  1  9  1  0
  1 10  1  0
  2  8  1  0
  2 15  1  0
  3 15  1  0
  3 17  1  0
  4 10  1  0
  4 17  1  0
  5 11  1  0
  5 12  1  0
  6  9  1  0
  7 12  1  0
  7 14  1  0
  8 20  1  0
 11 22  1  0
 12 19  1  0
 13 18  1  0
 13 19  1  0
 13 22  1  0
 14 20  1  0
 16 22  1  0
 18 21  1  0
M  END
$$$$
