
     RDKit          3D

 19 17  0  0  0  0  0  0  0  0999 V2000
    5.6731  -34.7920    6.9842 C   0  0  0  0  0  0  0  0  0  0  0  0
    5.6957  -39.7819    4.3280 N   0  0  0  0  0  0  0  0  0  0  0  0
    4.6994  -39.0114    5.0246 C   0  0  0  0  0  0  0  0  0  0  0  0
    8.9871  -39.0732    0.6534 C   0  0  0  0  0  0  0  0  0  0  0  0
    5.8193  -35.7604    5.8626 C   0  0  0  0  0  0  0  0  0  0  0  0
    9.2479  -38.9578    1.7887 O   0  0  0  0  0  0  0  0  0  0  0  0
    4.7776  -37.6037    4.6609 C   0  0  0  0  0  0  0  0  0  0  0  0
    6.8779  -36.3540   -0.6741 C   0  0  0  0  0  0  0  0  0  0  0  0
    9.7446  -40.0237   -0.1688 C   0  0  0  0  0  0  0  0  0  0  0  0
    4.7793  -36.7939    5.8955 C   0  0  0  0  0  0  0  0  0  0  0  0
    7.9850  -38.3644   -0.0173 N   0  0  0  0  0  0  0  0  0  0  0  0
    8.8172  -36.2272    0.7056 C   0  0  0  0  0  0  0  0  0  0  0  0
    6.4767  -35.2127    8.1563 C   0  0  0  0  0  0  0  0  0  0  0  0
    5.8376  -35.6702    9.1729 O   0  0  0  0  0  0  0  0  0  0  0  0
    8.1172  -37.0039   -0.3348 C   0  0  0  0  0  0  0  0  0  0  0  0
    6.7189  -38.9990   -0.3963 C   0  0  0  0  0  0  0  0  0  0  0  0
    7.7202  -35.1269    8.1621 O   0  0  0  0  0  0  0  0  0  0  0  0
    5.1820  -39.9569    2.9349 C   0  0  0  0  0  0  0  0  0  0  0  0
    5.9066  -41.0405    5.0595 C   0  0  0  0  0  0  0  0  0  0  0  0
  1  5  1  0
  1 13  1  0
  2  3  1  0
  2 18  1  0
  2 19  1  0
  3  7  1  0
  4  6  2  0
  4  9  1  0
  4 11  1  0
  5 10  1  0
  7 10  1  0
  8 15  1  0
 11 15  1  0
 11 16  1  0
 12 15  1  0
 13 14  2  0
 13 17  1  0
M  END
$$$$
