
     RDKit          3D

 35 37  0  0  0  0  0  0  0  0999 V2000
    5.9555  -40.6042    2.1554 O   0  0  0  0  0  0  0  0  0  0  0  0
    7.6732  -33.4206    9.0345 N   0  0  0  0  0  0  0  0  0  0  0  0
    6.2639  -33.8363    9.1839 C   0  0  0  0  0  0  0  0  0  0  0  0
    4.2779  -37.8853    4.2839 C   0  0  0  0  0  0  0  0  0  0  0  0
    6.9223  -31.4302    8.2068 O   0  0  0  0  0  0  0  0  0  0  0  0
    9.7216  -39.4663    2.0259 N   0  0  0  0  0  0  0  0  0  0  0  0
    3.5864  -37.7583    0.5734 C   0  0  0  0  0  0  0  0  0  0  0  0
    8.1132  -38.2911    0.6617 C   0  0  0  0  0  0  0  0  0  0  0  0
    6.0794  -37.3786    0.0571 C   0  0  0  0  0  0  0  0  0  0  0  0
    5.0158  -38.0331    0.9130 C   0  0  0  0  0  0  0  0  0  0  0  0
    5.0363  -36.8095    6.5196 C   0  0  0  0  0  0  0  0  0  0  0  0
    9.2406  -31.6767    8.4575 C   0  0  0  0  0  0  0  0  0  0  0  0
    4.5772  -37.8996    5.6939 C   0  0  0  0  0  0  0  0  0  0  0  0
    5.9588  -40.0317    3.2695 C   0  0  0  0  0  0  0  0  0  0  0  0
    9.4112  -40.1326   -0.1450 O   0  0  0  0  0  0  0  0  0  0  0  0
    3.1766  -37.1998    3.9401 O   0  0  0  0  0  0  0  0  0  0  0  0
    5.5232  -36.0692    8.7281 C   0  0  0  0  0  0  0  0  0  0  0  0
    7.0116  -38.4259   -0.3994 C   0  0  0  0  0  0  0  0  0  0  0  0
    5.3723  -37.7852    2.2826 O   0  0  0  0  0  0  0  0  0  0  0  0
    7.8445  -32.1722    8.5385 C   0  0  0  0  0  0  0  0  0  0  0  0
    5.7281  -34.5679    6.8420 C   0  0  0  0  0  0  0  0  0  0  0  0
    5.8776  -41.1259    4.3142 C   0  0  0  0  0  0  0  0  0  0  0  0
    8.0916  -35.8987    0.1163 C   0  0  0  0  0  0  0  0  0  0  0  0
    6.1477  -42.1713    3.2705 C   0  0  0  0  0  0  0  0  0  0  0  0
    4.9673  -38.6539    3.3793 C   0  0  0  0  0  0  0  0  0  0  0  0
    5.1308  -37.0672    7.8762 C   0  0  0  0  0  0  0  0  0  0  0  0
    6.7766  -41.6740    2.0708 C   0  0  0  0  0  0  0  0  0  0  0  0
    9.1126  -39.3840    0.7747 C   0  0  0  0  0  0  0  0  0  0  0  0
    6.7356  -36.1235    0.5708 C   0  0  0  0  0  0  0  0  0  0  0  0
    8.9141  -37.1612    0.1216 C   0  0  0  0  0  0  0  0  0  0  0  0
    5.8187  -34.8608    8.1745 C   0  0  0  0  0  0  0  0  0  0  0  0
    4.2630  -38.9213    6.3142 O   0  0  0  0  0  0  0  0  0  0  0  0
    6.1733  -39.5356   -0.3165 O   0  0  0  0  0  0  0  0  0  0  0  0
    3.2436  -36.3251    0.7510 O   0  0  0  0  0  0  0  0  0  0  0  0
    5.3414  -35.5667    5.9758 C   0  0  0  0  0  0  0  0  0  0  0  0
  1 14  1  0
  1 27  1  0
  2  3  1  0
  2 20  1  0
  3 31  1  0
  4 13  1  0
  4 16  1  0
  4 25  1  0
  5 20  2  0
  6 28  1  0
  7 10  1  0
  7 34  1  0
  8 18  1  0
  8 28  1  0
  8 30  1  0
  9 10  1  0
  9 18  1  0
  9 29  1  0
 10 19  1  0
 11 13  1  0
 11 26  1  0
 11 35  2  0
 12 20  1  0
 13 32  2  0
 14 22  1  0
 14 25  1  0
 15 28  2  0
 17 26  2  0
 17 31  1  0
 18 33  1  0
 19 25  1  0
 21 31  2  0
 21 35  1  0
 22 24  1  0
 23 29  1  0
 23 30  1  0
 24 27  1  0
M  END
$$$$
