
     RDKit          3D

 34 37  0  0  0  0  0  0  0  0999 V2000
    9.5457  -36.6218    1.3544 C   0  0  0  0  0  0  0  0  0  0  0  0
    8.9413  -40.1319    2.4181 O   0  0  0  0  0  0  0  0  0  0  0  0
    6.0252  -32.4918    7.6960 C   0  0  0  0  0  0  0  0  0  0  0  0
    3.1428  -36.3489    3.1429 C   0  0  0  0  0  0  0  0  0  0  0  0
    4.5424  -35.2444    5.7644 C   0  0  0  0  0  0  0  0  0  0  0  0
    4.0013  -39.0563    0.9464 C   0  0  0  0  0  0  0  0  0  0  0  0
    4.6806  -39.9227    1.7700 C   0  0  0  0  0  0  0  0  0  0  0  0
    7.6468  -38.2952    0.3481 C   0  0  0  0  0  0  0  0  0  0  0  0
    7.5557  -37.0930   -0.6901 C   0  0  0  0  0  0  0  0  0  0  0  0
    9.7972  -39.1164    1.8860 C   0  0  0  0  0  0  0  0  0  0  0  0
    9.2381  -39.9531   -0.6670 O   0  0  0  0  0  0  0  0  0  0  0  0
    4.1216  -38.6725    5.4106 C   0  0  0  0  0  0  0  0  0  0  0  0
    6.0241  -37.4275    7.1148 C   0  0  0  0  0  0  0  0  0  0  0  0
    7.5142  -35.6522   -0.0434 C   0  0  0  0  0  0  0  0  0  0  0  0
    6.3259  -37.2519   -1.4251 O   0  0  0  0  0  0  0  0  0  0  0  0
    4.7390  -33.9258    6.1824 C   0  0  0  0  0  0  0  0  0  0  0  0
    5.9997  -36.3784    7.3882 C   0  0  0  0  0  0  0  0  0  0  0  0
    3.3961  -37.7557    2.8200 C   0  0  0  0  0  0  0  0  0  0  0  0
    7.8530  -39.5895   -0.5258 C   0  0  0  0  0  0  0  0  0  0  0  0
    5.1898  -39.7014    5.9018 C   0  0  0  0  0  0  0  0  0  0  0  0
    4.0387  -38.5931    3.7223 C   0  0  0  0  0  0  0  0  0  0  0  0
    4.4220  -37.1636    5.5172 N   0  0  0  0  0  0  0  0  0  0  0  0
    4.6623  -39.6271    3.0876 C   0  0  0  0  0  0  0  0  0  0  0  0
    8.4940  -35.4420    1.2158 C   0  0  0  0  0  0  0  0  0  0  0  0
    5.3222  -39.2836    7.3961 C   0  0  0  0  0  0  0  0  0  0  0  0
    7.4805  -34.9267    8.7679 C   0  0  0  0  0  0  0  0  0  0  0  0
    7.7422  -33.5841    9.1422 C   0  0  0  0  0  0  0  0  0  0  0  0
    3.3670  -37.9320    1.5220 C   0  0  0  0  0  0  0  0  0  0  0  0
    7.1026  -32.4560    8.6946 C   0  0  0  0  0  0  0  0  0  0  0  0
    3.4986  -35.8156    4.5029 C   0  0  0  0  0  0  0  0  0  0  0  0
    6.4442  -35.0630    7.8788 C   0  0  0  0  0  0  0  0  0  0  0  0
    5.6217  -33.6938    7.2281 C   0  0  0  0  0  0  0  0  0  0  0  0
    8.7469  -38.0137    1.5208 C   0  0  0  0  0  0  0  0  0  0  0  0
    5.0890  -36.4530    6.2419 C   0  0  0  0  0  0  0  0  0  0  0  0
  1 24  1  0
  1 33  1  0
  2 10  1  0
  3 29  4  0
  3 32  4  0
  4 18  1  0
  4 30  1  0
  5 16  4  0
  5 34  4  0
  6  7  2  0
  6 28  1  0
  7 23  1  0
  8  9  1  0
  8 19  1  0
  8 33  1  0
  9 14  1  0
  9 15  1  0
 10 33  1  0
 11 19  1  0
 12 20  1  0
 12 21  1  0
 12 22  1  0
 13 25  1  0
 14 24  1  0
 16 32  4  0
 17 31  4  0
 17 34  4  0
 18 21  1  0
 18 28  2  0
 20 25  1  0
 21 23  2  0
 22 30  1  0
 22 34  2  3
 26 27  4  0
 26 31  4  0
 27 29  4  0
 31 32  4  0
M  END
$$$$
