
     RDKit          3D

 26 28  0  0  0  0  0  0  0  0999 V2000
    7.1749  -33.9729    8.9871 C   0  0  0  0  0  0  0  0  0  0  0  0
    8.7135  -39.7509    0.6192 C   0  0  0  0  0  0  0  0  0  0  0  0
    5.5263  -40.5756    5.7115 O   0  0  0  0  0  0  0  0  0  0  0  0
    8.7246  -36.1067    1.1225 C   0  0  0  0  0  0  0  0  0  0  0  0
    4.5282  -37.6989    6.9812 C   0  0  0  0  0  0  0  0  0  0  0  0
    6.7576  -33.4692    7.7943 C   0  0  0  0  0  0  0  0  0  0  0  0
    4.8414  -36.3659    6.5205 O   0  0  0  0  0  0  0  0  0  0  0  0
    5.1477  -39.2508    5.2330 N   0  0  0  0  0  0  0  0  0  0  0  0
    7.2879  -35.7927    0.9792 C   0  0  0  0  0  0  0  0  0  0  0  0
    7.5295  -39.2831   -0.1545 C   0  0  0  0  0  0  0  0  0  0  0  0
    4.7195  -39.4451    3.8699 C   0  0  0  0  0  0  0  0  0  0  0  0
    5.6175  -35.5308    7.3485 C   0  0  0  0  0  0  0  0  0  0  0  0
    9.4048  -38.5494    1.1577 C   0  0  0  0  0  0  0  0  0  0  0  0
    9.5940  -40.4853   -0.2120 O   0  0  0  0  0  0  0  0  0  0  0  0
    7.5676  -37.8288   -0.1182 N   0  0  0  0  0  0  0  0  0  0  0  0
    6.8215  -35.2439    9.3752 C   0  0  0  0  0  0  0  0  0  0  0  0
    6.0359  -36.0272    8.5681 C   0  0  0  0  0  0  0  0  0  0  0  0
    5.6837  -37.3095    3.6436 O   0  0  0  0  0  0  0  0  0  0  0  0
    4.8081  -37.4757   -0.5824 C   0  0  0  0  0  0  0  0  0  0  0  0
    5.9761  -34.2532    6.9816 C   0  0  0  0  0  0  0  0  0  0  0  0
    4.0337  -38.7614    6.0469 C   0  0  0  0  0  0  0  0  0  0  0  0
    4.7554  -38.2827    1.6728 O   0  0  0  0  0  0  0  0  0  0  0  0
    8.9152  -37.4195    0.3484 C   0  0  0  0  0  0  0  0  0  0  0  0
    5.2922  -37.2870    0.8082 C   0  0  0  0  0  0  0  0  0  0  0  0
    6.7632  -37.1769    0.9386 C   0  0  0  0  0  0  0  0  0  0  0  0
    5.1565  -38.2674    3.1114 C   0  0  0  0  0  0  0  0  0  0  0  0
  1  6  2  0
  1 16  1  0
  2 10  1  0
  2 13  1  0
  2 14  1  0
  3  8  1  0
  4  9  1  0
  4 23  1  0
  5  7  1  0
  5 21  1  0
  6 20  1  0
  7 12  1  0
  8 11  1  0
  8 21  1  0
  9 25  1  0
 10 15  1  0
 11 26  1  0
 12 17  1  0
 12 20  2  0
 13 23  1  0
 15 23  1  0
 15 25  1  0
 16 17  2  0
 18 26  2  0
 19 24  1  0
 22 24  1  0
 22 26  1  0
 24 25  1  0
M  END
$$$$
