
     RDKit          3D

 18 17  0  0  0  0  0  0  0  0999 V2000
    8.9983  -39.8484    1.7978 O   0  0  0  0  0  0  0  0  0  0  0  0
    7.1481  -35.8342   -0.5828 C   0  0  0  0  0  0  0  0  0  0  0  0
    9.0076  -39.4551    0.6266 C   0  0  0  0  0  0  0  0  0  0  0  0
    5.1627  -39.8427    6.3282 C   0  0  0  0  0  0  0  0  0  0  0  0
    6.1841  -40.4599    4.1277 N   0  0  0  0  0  0  0  0  0  0  0  0
    5.4064  -37.6973    7.6918 C   0  0  0  0  0  0  0  0  0  0  0  0
    8.1504  -35.8341    0.3675 C   0  0  0  0  0  0  0  0  0  0  0  0
    7.1764  -35.2040    8.1590 O   0  0  0  0  0  0  0  0  0  0  0  0
    5.1287  -36.2290    7.3894 C   0  0  0  0  0  0  0  0  0  0  0  0
    7.0057  -33.9989    8.6868 C   0  0  0  0  0  0  0  0  0  0  0  0
    8.6970  -37.0286    0.8461 C   0  0  0  0  0  0  0  0  0  0  0  0
    9.5659  -40.1535   -0.3756 O   0  0  0  0  0  0  0  0  0  0  0  0
    6.3913  -35.4125    7.0708 C   0  0  0  0  0  0  0  0  0  0  0  0
    8.4387  -38.2615    0.2885 C   0  0  0  0  0  0  0  0  0  0  0  0
    6.7464  -37.0515   -1.0911 C   0  0  0  0  0  0  0  0  0  0  0  0
    5.0842  -39.7814    4.7981 C   0  0  0  0  0  0  0  0  0  0  0  0
    4.4449  -38.6691    6.9957 C   0  0  0  0  0  0  0  0  0  0  0  0
    7.4076  -38.3543   -0.6170 C   0  0  0  0  0  0  0  0  0  0  0  0
  1  3  1  0
  2  7  2  0
  2 15  1  0
  3 12  2  0
  3 14  1  0
  4 16  1  0
  4 17  1  0
  5 16  1  0
  6  9  1  0
  6 17  1  0
  7 11  1  0
  8 10  1  0
  8 13  1  0
  9 13  1  0
 11 14  2  0
 14 18  1  0
 15 18  2  0
M  END
$$$$
