
     RDKit          3D

 28 30  0  0  0  0  0  0  0  0999 V2000
    4.8619  -35.8787    6.4923 C   0  0  0  0  0  0  0  0  0  0  0  0
    6.0244  -35.9527    8.7606 C   0  0  0  0  0  0  0  0  0  0  0  0
    3.9186  -36.4329    5.5667 C   0  0  0  0  0  0  0  0  0  0  0  0
    5.8558  -38.3035    1.8784 C   0  0  0  0  0  0  0  0  0  0  0  0
    8.1978  -38.6840   -0.4155 C   0  0  0  0  0  0  0  0  0  0  0  0
    9.2922  -39.3298    0.3609 C   0  0  0  0  0  0  0  0  0  0  0  0
    4.1492  -38.5499    4.5356 C   0  0  0  0  0  0  0  0  0  0  0  0
    5.0352  -36.5122    7.6403 C   0  0  0  0  0  0  0  0  0  0  0  0
    6.5128  -37.4909    2.4295 O   0  0  0  0  0  0  0  0  0  0  0  0
    9.8433  -40.3457   -0.3723 O   0  0  0  0  0  0  0  0  0  0  0  0
    7.0552  -33.2770    7.4038 O   0  0  0  0  0  0  0  0  0  0  0  0
    5.9503  -38.1340    0.4593 C   0  0  0  0  0  0  0  0  0  0  0  0
    3.0561  -38.9900    4.8812 O   0  0  0  0  0  0  0  0  0  0  0  0
    7.5136  -34.3497    9.4561 Cl  0  0  0  0  0  0  0  0  0  0  0  0
    7.0684  -36.6499   -0.9902 C   0  0  0  0  0  0  0  0  0  0  0  0
    6.3551  -34.2902    7.2458 C   0  0  0  0  0  0  0  0  0  0  0  0
    6.4661  -34.9586    8.3164 C   0  0  0  0  0  0  0  0  0  0  0  0
    5.0206  -40.8098    4.3404 C   0  0  0  0  0  0  0  0  0  0  0  0
    4.8329  -37.7940   -0.4243 C   0  0  0  0  0  0  0  0  0  0  0  0
    5.8381  -36.8256   -0.1708 C   0  0  0  0  0  0  0  0  0  0  0  0
    4.6964  -37.2853    4.7823 N   0  0  0  0  0  0  0  0  0  0  0  0
    8.2799  -37.1750   -0.3730 C   0  0  0  0  0  0  0  0  0  0  0  0
    5.1963  -39.2681    2.4438 N   0  0  0  0  0  0  0  0  0  0  0  0
    5.5084  -41.0170    5.6928 C   0  0  0  0  0  0  0  0  0  0  0  0
    6.8995  -39.2713    0.1015 C   0  0  0  0  0  0  0  0  0  0  0  0
    5.1731  -39.4202    3.8585 C   0  0  0  0  0  0  0  0  0  0  0  0
    5.5386  -34.7845    6.2871 C   0  0  0  0  0  0  0  0  0  0  0  0
    5.5801  -41.7804    3.4055 C   0  0  0  0  0  0  0  0  0  0  0  0
  1  3  1  0
  1  8  1  0
  1 27  2  0
  2  8  2  0
  2 17  1  0
  3 21  1  0
  4  9  2  0
  4 12  1  0
  4 23  1  0
  5  6  1  0
  5 22  1  0
  5 25  1  0
  6 10  1  0
  7 13  2  0
  7 21  1  0
  7 26  1  0
 11 16  1  0
 12 19  1  0
 12 20  1  0
 12 25  1  0
 14 17  1  0
 15 20  1  0
 15 22  1  0
 16 17  2  0
 16 27  1  0
 18 24  1  0
 18 26  1  0
 18 28  1  0
 19 20  1  0
 23 26  1  0
M  END
$$$$
