
     RDKit          3D

 26 27  0  0  0  0  0  0  0  0999 V2000
   10.3420  -40.3422   -0.4727 C   0  0  0  0  0  0  0  0  0  0  0  0
    8.3880  -36.4456   -0.1027 C   0  0  0  0  0  0  0  0  0  0  0  0
    6.5403  -35.1222    8.3078 C   0  0  0  0  0  0  0  0  0  0  0  0
    4.2503  -37.1084    6.0614 C   0  0  0  0  0  0  0  0  0  0  0  0
    5.7742  -36.1497    7.7728 C   0  0  0  0  0  0  0  0  0  0  0  0
    6.5769  -33.8893    7.6785 C   0  0  0  0  0  0  0  0  0  0  0  0
    5.1021  -34.7192    5.9883 C   0  0  0  0  0  0  0  0  0  0  0  0
    8.4212  -39.7813    0.7740 C   0  0  0  0  0  0  0  0  0  0  0  0
    5.1693  -40.6496    6.0551 C   0  0  0  0  0  0  0  0  0  0  0  0
    7.4464  -38.6265    0.9067 C   0  0  0  0  0  0  0  0  0  0  0  0
    8.3823  -37.3884    1.1094 C   0  0  0  0  0  0  0  0  0  0  0  0
    6.9451  -36.2781   -0.5820 C   0  0  0  0  0  0  0  0  0  0  0  0
    5.8512  -33.6978    6.5153 C   0  0  0  0  0  0  0  0  0  0  0  0
    9.0912  -39.6773   -0.4545 O   0  0  0  0  0  0  0  0  0  0  0  0
    7.2939  -34.3898   10.5064 C   0  0  0  0  0  0  0  0  0  0  0  0
    6.3591  -37.5061   -1.2275 C   0  0  0  0  0  0  0  0  0  0  0  0
    5.4614  -40.7032    1.6983 O   0  0  0  0  0  0  0  0  0  0  0  0
    5.6778  -39.7329    2.3805 C   0  0  0  0  0  0  0  0  0  0  0  0
    4.4273  -37.3004    4.6033 C   0  0  0  0  0  0  0  0  0  0  0  0
    5.0654  -39.5579    3.7750 C   0  0  0  0  0  0  0  0  0  0  0  0
    6.6033  -38.7307    2.0841 N   0  0  0  0  0  0  0  0  0  0  0  0
    7.2546  -35.3776    9.4695 O   0  0  0  0  0  0  0  0  0  0  0  0
    6.4119  -38.7054   -0.2691 C   0  0  0  0  0  0  0  0  0  0  0  0
    5.5724  -40.7076    4.6057 C   0  0  0  0  0  0  0  0  0  0  0  0
    5.4741  -38.2387    4.2521 N   0  0  0  0  0  0  0  0  0  0  0  0
    5.0505  -35.9593    6.6120 C   0  0  0  0  0  0  0  0  0  0  0  0
  1 14  1  0
  2 11  1  0
  2 12  1  0
  3  5  1  0
  3  6  2  0
  3 22  1  0
  4 19  1  0
  4 26  1  0
  5 26  2  0
  6 13  1  0
  7 13  2  0
  7 26  1  0
  8 10  1  0
  8 14  1  0
  9 24  1  0
 10 11  1  0
 10 21  1  0
 10 23  1  0
 12 16  1  0
 15 22  1  0
 16 23  1  0
 17 18  2  0
 18 20  1  0
 18 21  1  0
 19 25  1  0
 20 24  1  0
 20 25  1  0
M  END
$$$$
