
     RDKit          3D

 23 28  0  0  0  0  0  0  0  0999 V2000
    7.0539  -35.9509    1.3615 C   0  0  0  0  0  0  0  0  0  0  0  0
    6.6494  -37.3547    1.7330 C   0  0  0  0  0  0  0  0  0  0  0  0
    4.5807  -36.3917    2.8414 C   0  0  0  0  0  0  0  0  0  0  0  0
    9.2941  -39.2540   -0.1466 C   0  0  0  0  0  0  0  0  0  0  0  0
    4.1042  -36.3506    5.1894 N   0  0  0  0  0  0  0  0  0  0  0  0
    9.0299  -40.4417    0.1116 O   0  0  0  0  0  0  0  0  0  0  0  0
    5.0087  -37.0485    4.1985 C   0  0  0  0  0  0  0  0  0  0  0  0
    6.8267  -34.1884    8.2299 Cl  0  0  0  0  0  0  0  0  0  0  0  0
    9.0179  -36.8089    0.2086 C   0  0  0  0  0  0  0  0  0  0  0  0
    8.6239  -38.2138    0.7273 C   0  0  0  0  0  0  0  0  0  0  0  0
    7.1351  -38.2298    0.6300 N   0  0  0  0  0  0  0  0  0  0  0  0
    7.0226  -36.5009   -1.0680 C   0  0  0  0  0  0  0  0  0  0  0  0
    6.0092  -35.7348    8.3537 C   0  0  0  0  0  0  0  0  0  0  0  0
    5.1996  -36.3336    7.2151 C   0  0  0  0  0  0  0  0  0  0  0  0
    9.9158  -39.2882    1.6044 O   0  0  0  0  0  0  0  0  0  0  0  0
    6.0612  -35.7423    8.5030 C   0  0  0  0  0  0  0  0  0  0  0  0
    5.8714  -37.0946    9.4957 S   0  0  0  0  0  0  0  0  0  0  0  0
    4.8107  -35.4469    6.0949 C   0  0  0  0  0  0  0  0  0  0  0  0
    5.0319  -38.0711    8.8538 C   0  0  0  0  0  0  0  0  0  0  0  0
    7.7848  -35.8762    0.0448 C   0  0  0  0  0  0  0  0  0  0  0  0
    6.6815  -37.9213   -0.7348 C   0  0  0  0  0  0  0  0  0  0  0  0
    4.6073  -37.5973    7.5206 C   0  0  0  0  0  0  0  0  0  0  0  0
    5.2464  -37.2232    1.6847 C   0  0  0  0  0  0  0  0  0  0  0  0
  1  2  1  0
  1 20  1  0
  2 11  1  0
  2 23  1  0
  3  7  1  0
  3 23  1  0
  4  6  1  0
  4 10  1  0
  4 15  1  0
  5  7  1  0
  5 18  1  0
  8 13  1  0
  8 16  1  0
  9 10  1  0
  9 20  1  0
 10 11  1  0
 10 15  1  0
 11 21  1  0
 12 20  1  0
 12 21  1  0
 13 14  4  0
 13 16  4  0
 13 17  4  0
 14 18  1  0
 14 22  4  0
 16 17  4  0
 17 19  4  0
 19 22  4  0
M  END
$$$$
