
     RDKit          3D

 27 29  0  0  0  0  0  0  0  0999 V2000
   97.9514    6.6954  -90.3451 N   0  0  0  0  0  0  0  0  0  0  0  0
   98.2589    9.1288  -90.6294 N   0  0  0  0  0  0  0  0  0  0  0  0
  100.9029    4.4249  -92.4184 C   0  0  0  0  0  0  0  0  0  0  0  0
  106.3283    3.6667  -92.2186 C   0  0  0  0  0  0  0  0  0  0  0  0
  107.9096    1.5200  -92.1618 O   0  0  0  0  0  0  0  0  0  0  0  0
  106.7271    2.0653  -94.1835 O   0  0  0  0  0  0  0  0  0  0  0  0
  100.4010    8.8020  -91.3271 N   0  0  0  0  0  0  0  0  0  0  0  0
   99.6367   11.1469  -91.2695 C   0  0  0  0  0  0  0  0  0  0  0  0
   98.9132    5.6894  -90.6077 C   0  0  0  0  0  0  0  0  0  0  0  0
   99.8782    7.6130  -91.0589 C   0  0  0  0  0  0  0  0  0  0  0  0
   99.6375    3.9623  -92.9160 O   0  0  0  0  0  0  0  0  0  0  0  0
  101.8902    3.4352  -94.4139 O   0  0  0  0  0  0  0  0  0  0  0  0
  106.5237    2.0279  -92.5960 P   0  0  0  0  0  0  0  0  0  0  0  0
  103.5252    5.5914  -91.6344 C   0  0  0  0  0  0  0  0  0  0  0  0
  105.4026    4.3790  -93.2232 C   0  0  0  0  0  0  0  0  0  0  0  0
  105.8602    3.6389  -91.0155 O   0  0  0  0  0  0  0  0  0  0  0  0
   98.5751    7.8334  -90.6309 C   0  0  0  0  0  0  0  0  0  0  0  0
  104.6728    6.6005  -91.6481 O   0  0  0  0  0  0  0  0  0  0  0  0
  102.3568    6.1619  -91.0938 C   0  0  0  0  0  0  0  0  0  0  0  0
  101.9058    4.5077  -93.4796 C   0  0  0  0  0  0  0  0  0  0  0  0
  104.1179    3.9822  -92.9104 O   0  0  0  0  0  0  0  0  0  0  0  0
  103.3045    5.0105  -93.0250 C   0  0  0  0  0  0  0  0  0  0  0  0
  100.0761    6.2441  -91.0392 N   0  0  0  0  0  0  0  0  0  0  0  0
   99.3804    9.6701  -91.0551 C   0  0  0  0  0  0  0  0  0  0  0  0
  105.3639    1.1881  -92.2029 O   0  0  0  0  0  0  0  0  0  0  0  0
  102.4565    7.4758  -91.3556 O   0  0  0  0  0  0  0  0  0  0  0  0
  101.0123    5.6105  -91.5533 C   0  0  0  0  0  0  0  0  0  0  0  0
  1  9  4  0
  1 17  4  0
  2 17  4  0
  2 24  4  0
  3 11  1  0
  3 20  1  0
  3 27  1  0
  4 13  1  0
  4 15  1  0
  4 16  1  0
  5 13  1  0
  6 13  2  0
  7 10  4  0
  7 24  4  0
  8 24  1  0
  9 23  4  0
 10 17  4  0
 10 23  4  0
 12 20  1  0
 13 25  1  0
 14 18  1  0
 14 19  1  0
 14 22  1  0
 15 21  1  0
 19 26  1  0
 19 27  2  0
 20 22  1  0
 21 22  1  0
 23 27  1  0
M  END
$$$$
