
     RDKit          3D

 28 30  0  0  0  0  0  0  0  0999 V2000
  -14.4977   -6.9599  -21.4389 O   0  0  0  0  0  0  0  0  0  0  0  0
  -15.2308    2.5470  -18.8215 O   0  0  0  0  0  0  0  0  0  0  0  0
  -15.8648    0.2306  -26.4909 O   0  0  0  0  0  0  0  0  0  0  0  0
  -12.6858   -6.2130  -24.3295 C   0  0  0  0  0  0  0  0  0  0  0  0
  -14.2395   -0.0150  -24.6589 C   0  0  0  0  0  0  0  0  0  0  0  0
  -11.8380   -6.9864  -25.1294 N   0  0  0  0  0  0  0  0  0  0  0  0
  -17.6103    2.9021  -19.6392 O   0  0  0  0  0  0  0  0  0  0  0  0
  -15.2381   -2.9460  -22.8319 C   0  0  0  0  0  0  0  0  0  0  0  0
  -13.4278   -1.0887  -24.2300 O   0  0  0  0  0  0  0  0  0  0  0  0
  -16.8930    1.5635  -22.3621 P   0  0  0  0  0  0  0  0  0  0  0  0
  -15.3748   -0.5936  -25.4403 C   0  0  0  0  0  0  0  0  0  0  0  0
  -14.8848   -1.8551  -25.9700 C   0  0  0  0  0  0  0  0  0  0  0  0
  -15.2931   -4.0339  -22.0707 N   0  0  0  0  0  0  0  0  0  0  0  0
  -14.4167   -1.6294  -27.2958 O   0  0  0  0  0  0  0  0  0  0  0  0
  -14.4391   -4.8998  -22.6606 C   0  0  0  0  0  0  0  0  0  0  0  0
  -17.6535    2.6129  -23.0286 O   0  0  0  0  0  0  0  0  0  0  0  0
  -14.3552   -3.1772  -23.8686 N   0  0  0  0  0  0  0  0  0  0  0  0
  -15.9535    0.5413  -23.1742 O   0  0  0  0  0  0  0  0  0  0  0  0
  -17.7779    0.5107  -21.6759 O   0  0  0  0  0  0  0  0  0  0  0  0
  -16.1524    2.9436  -19.8665 P   0  0  0  0  0  0  0  0  0  0  0  0
  -14.0767   -6.2911  -22.3659 C   0  0  0  0  0  0  0  0  0  0  0  0
  -13.8639   -2.2733  -24.9048 C   0  0  0  0  0  0  0  0  0  0  0  0
  -15.9236    2.1423  -21.2499 O   0  0  0  0  0  0  0  0  0  0  0  0
  -13.8908   -4.3600  -23.8301 C   0  0  0  0  0  0  0  0  0  0  0  0
  -15.8233    4.4319  -20.3907 O   0  0  0  0  0  0  0  0  0  0  0  0
  -13.2001   -6.8657  -23.2384 N   0  0  0  0  0  0  0  0  0  0  0  0
  -12.9996   -4.9768  -24.6430 N   0  0  0  0  0  0  0  0  0  0  0  0
  -14.6334    0.8512  -23.5252 C   0  0  0  0  0  0  0  0  0  0  0  0
  1 21  2  0
  2 20  1  0
  3 11  1  0
  4  6  1  0
  4 26  2  0
  4 27  1  0
  5  9  1  0
  5 11  1  0
  5 28  1  0
  7 20  2  0
  8 13  2  0
  8 17  1  0
  9 22  1  0
 10 16  1  0
 10 18  1  0
 10 19  2  0
 10 23  1  0
 11 12  1  0
 12 14  1  0
 12 22  1  0
 13 15  1  0
 15 21  1  0
 15 24  2  0
 17 22  1  0
 17 24  1  0
 18 28  1  0
 20 23  1  0
 20 25  1  0
 21 26  1  0
 24 27  1  0
M  END
$$$$
