
     RDKit          3D

 21 22  0  0  0  0  0  0  0  0999 V2000
   -1.2522   -2.3123    0.2080 C   0  0  0  0  0  0  0  0  0  0  0  0
    1.7208    0.1107    0.4186 N   0  0  0  0  0  0  0  0  0  0  0  0
   -1.1729    0.1470   -0.1141 C   0  0  0  0  0  0  0  0  0  0  0  0
    3.6470   -0.1996   -1.1164 C   0  0  0  0  0  0  0  0  0  0  0  0
   -4.7104    0.0889    1.2597 C   0  0  0  0  0  0  0  0  0  0  0  0
   -0.5272   -1.0248    0.0699 C   0  0  0  0  0  0  0  0  0  0  0  0
   -0.7479   -3.2497    0.8832 O   0  0  0  0  0  0  0  0  0  0  0  0
   -3.3097    1.1270   -0.9279 C   0  0  0  0  0  0  0  0  0  0  0  0
    3.1061    0.3019    0.0827 C   0  0  0  0  0  0  0  0  0  0  0  0
   -4.6816    1.3646   -0.7980 C   0  0  0  0  0  0  0  0  0  0  0  0
   -3.3387   -0.1501    1.1323 C   0  0  0  0  0  0  0  0  0  0  0  0
   -2.6324    0.3469    0.0218 C   0  0  0  0  0  0  0  0  0  0  0  0
    5.8040    0.7524   -0.5594 C   0  0  0  0  0  0  0  0  0  0  0  0
   -7.1043    1.1428    0.4553 Cl  0  0  0  0  0  0  0  0  0  0  0  0
   -5.3839    0.8420    0.2927 C   0  0  0  0  0  0  0  0  0  0  0  0
    4.9920    0.0212   -1.4299 C   0  0  0  0  0  0  0  0  0  0  0  0
    0.9579   -1.0493    0.0426 C   0  0  0  0  0  0  0  0  0  0  0  0
   -2.4716   -2.5131   -0.4340 O   0  0  0  0  0  0  0  0  0  0  0  0
    3.9258    1.0540    0.9395 C   0  0  0  0  0  0  0  0  0  0  0  0
    1.5539   -2.1162   -0.2706 O   0  0  0  0  0  0  0  0  0  0  0  0
    5.2703    1.2717    0.6227 C   0  0  0  0  0  0  0  0  0  0  0  0
  1  6  1  0
  1  7  2  0
  1 18  1  0
  2  9  1  0
  2 17  1  0
  3  6  2  3
  3 12  1  0
  4  9  2  0
  4 16  1  0
  5 11  2  0
  5 15  1  0
  6 17  1  0
  8 10  1  0
  8 12  2  0
  9 19  1  0
 10 15  2  0
 11 12  1  0
 13 16  2  0
 13 21  1  0
 14 15  1  0
 17 20  2  0
 19 21  2  0
M  END
