
     RDKit          3D

 21 23  0  0  0  0  0  0  0  0999 V2000
   -5.1448    1.1061   -0.4901 C   0  0  0  0  0  0  0  0  0  0  0  0
   -4.3906   -0.0012   -0.0739 C   0  0  0  0  0  0  0  0  0  0  0  0
    3.3274   -1.5678    2.0304 N   0  0  0  0  0  0  0  0  0  0  0  0
    2.4541    0.0564   -0.0218 C   0  0  0  0  0  0  0  0  0  0  0  0
   -0.5932    0.3591   -0.1506 C   0  0  0  0  0  0  0  0  0  0  0  0
    5.8992    1.6107    0.3209 C   0  0  0  0  0  0  0  0  0  0  0  0
    4.2234   -0.7688    1.3913 C   0  0  0  0  0  0  0  0  0  0  0  0
    6.1655    0.4870   -0.6732 C   0  0  0  0  0  0  0  0  0  0  0  0
   -6.1514   -1.4694   -0.7102 C   0  0  0  0  0  0  0  0  0  0  0  0
    1.2161   -2.3422    2.3122 O   0  0  0  0  0  0  0  0  0  0  0  0
   -2.9990    0.1756    0.4596 C   0  0  0  0  0  0  0  0  0  0  0  0
    4.7432    0.9792   -0.4428 C   0  0  0  0  0  0  0  0  0  0  0  0
   -6.4241    0.9055   -1.0126 C   0  0  0  0  0  0  0  0  0  0  0  0
    1.5363   -0.7569    0.6605 C   0  0  0  0  0  0  0  0  0  0  0  0
   -6.9344   -0.3891   -1.1232 C   0  0  0  0  0  0  0  0  0  0  0  0
   -0.1163    1.5183   -0.0136 O   0  0  0  0  0  0  0  0  0  0  0  0
   -4.9075   -1.2549   -0.2036 N   0  0  0  0  0  0  0  0  0  0  0  0
    3.8088    0.0689    0.3368 C   0  0  0  0  0  0  0  0  0  0  0  0
    2.0097   -1.5851    1.6903 C   0  0  0  0  0  0  0  0  0  0  0  0
   -1.9837    0.1966   -0.6853 C   0  0  0  0  0  0  0  0  0  0  0  0
    0.1482   -0.7928    0.2813 N   0  0  0  0  0  0  0  0  0  0  0  0
  1  2  2  0
  1 13  1  0
  2 11  1  0
  2 17  1  0
  3  7  1  0
  3 19  1  0
  4 14  2  0
  4 18  1  0
  5 16  2  0
  5 20  1  0
  5 21  1  0
  6  8  1  0
  6 12  1  0
  7 18  2  0
  8 12  1  0
  9 15  1  0
  9 17  2  0
 10 19  2  0
 11 20  1  0
 12 18  1  0
 13 15  2  0
 14 19  1  0
 14 21  1  0
M  END
