
     RDKit          3D

 29 30  0  0  0  0  0  0  0  0999 V2000
   -3.4027    1.3393    0.8146 C   0  0  0  0  0  0  0  0  0  0  0  0
   -2.3302   -1.9780   -1.6853 C   0  0  0  0  0  0  0  0  0  0  0  0
    2.4023   -0.2478    2.7431 F   0  0  0  0  0  0  0  0  0  0  0  0
   -4.6299    1.3326    1.5494 N   0  0  0  0  0  0  0  0  0  0  0  0
    2.5433    0.3476   -0.0611 C   0  0  0  0  0  0  0  0  0  0  0  0
    4.8794    0.9807    0.1582 C   0  0  0  0  0  0  0  0  0  0  0  0
    0.8576    1.3752    2.9943 F   0  0  0  0  0  0  0  0  0  0  0  0
   -1.8314   -0.5038    0.1811 C   0  0  0  0  0  0  0  0  0  0  0  0
   -3.5225   -1.2962   -1.9327 C   0  0  0  0  0  0  0  0  0  0  0  0
    5.2749   -0.1883   -0.5146 C   0  0  0  0  0  0  0  0  0  0  0  0
   -5.1531    0.5846   -1.4448 C   0  0  0  0  0  0  0  0  0  0  0  0
    4.2879   -1.0862   -0.9589 C   0  0  0  0  0  0  0  0  0  0  0  0
   -3.8788   -0.1783   -1.1424 C   0  0  0  0  0  0  0  0  0  0  0  0
    6.7090   -0.4662   -0.7491 C   0  0  0  0  0  0  0  0  0  0  0  0
   -3.0413    0.1971   -0.0554 C   0  0  0  0  0  0  0  0  0  0  0  0
   -1.4903   -1.5833   -0.6497 C   0  0  0  0  0  0  0  0  0  0  0  0
    1.0504    0.0391    2.6877 C   0  0  0  0  0  0  0  0  0  0  0  0
    1.0823    0.6239    0.1886 C   0  0  0  0  0  0  0  0  0  0  0  0
   -2.6131    2.3162    0.9218 O   0  0  0  0  0  0  0  0  0  0  0  0
   -0.9833   -0.1465    1.2953 N   0  0  0  0  0  0  0  0  0  0  0  0
   -5.0402   -2.1482   -3.8669 N   0  0  0  0  0  0  0  0  0  0  0  0
    7.0663   -1.5143   -1.3521 O   0  0  0  0  0  0  0  0  0  0  0  0
   -4.3653   -1.7689   -3.0066 C   0  0  0  0  0  0  0  0  0  0  0  0
    3.5255    1.2463    0.3824 C   0  0  0  0  0  0  0  0  0  0  0  0
    0.4823   -0.2853    1.2886 C   0  0  2  0  0  0  0  0  0  0  0  0
    0.4097   -0.7337    3.6404 F   0  0  0  0  0  0  0  0  0  0  0  0
    2.9345   -0.8197   -0.7338 C   0  0  0  0  0  0  0  0  0  0  0  0
   -4.9848    2.3974    2.3074 O   0  0  0  0  0  0  0  0  0  0  0  0
    7.6792    0.4287   -0.3051 O   0  0  0  0  0  0  0  0  0  0  0  0
  1  4  1  0
  1 15  1  0
  1 19  2  0
  2  9  1  0
  2 16  2  0
  3 17  1  0
  4 28  1  0
  5 18  1  0
  5 24  1  0
  5 27  2  0
  6 10  1  0
  6 24  2  0
  7 17  1  0
  8 15  2  0
  8 16  1  0
  8 20  1  0
  9 13  2  0
  9 23  1  0
 10 12  2  0
 10 14  1  0
 11 13  1  0
 12 27  1  0
 13 15  1  0
 14 22  2  0
 14 29  1  0
 17 25  1  0
 17 26  1  0
 25 18  1  6
 20 25  1  0
 21 23  3  0
M  END
