
     RDKit          3D

 22 23  0  0  0  0  0  0  0  0999 V2000
    0.3676   -3.5198   -0.9379 C   0  0  0  0  0  0  0  0  0  0  0  0
   -0.0416   -1.2122   -0.2044 N   0  0  0  0  0  0  0  0  0  0  0  0
   -2.3612    4.6023   -1.7241 N   0  0  0  0  0  0  0  0  0  0  0  0
    0.1686   -0.0379    0.6561 C   0  0  1  0  0  0  0  0  0  0  0  0
    1.9478   -4.9523    0.2074 C   0  0  0  0  0  0  0  0  0  0  0  0
   -0.4599    1.2035    0.0366 C   0  0  0  0  0  0  0  0  0  0  0  0
    0.1647    0.3788    3.1241 O   0  0  0  0  0  0  0  0  0  0  0  0
    0.6462   -2.4705   -0.0448 C   0  0  0  0  0  0  0  0  0  0  0  0
   -2.4531    2.3549   -0.7435 C   0  0  0  0  0  0  0  0  0  0  0  0
   -0.2952    3.4578   -0.9162 C   0  0  0  0  0  0  0  0  0  0  0  0
    0.3266    2.3111   -0.3546 C   0  0  0  0  0  0  0  0  0  0  0  0
   -1.8479    1.2437   -0.1665 C   0  0  0  0  0  0  0  0  0  0  0  0
   -3.7326    4.7068   -1.6707 O   0  0  0  0  0  0  0  0  0  0  0  0
   -1.6943    3.4681   -1.1303 C   0  0  0  0  0  0  0  0  0  0  0  0
    1.5902   -2.6844    0.9812 C   0  0  0  0  0  0  0  0  0  0  0  0
    1.7132    2.2401   -0.1828 O   0  0  0  0  0  0  0  0  0  0  0  0
    2.2345   -3.9197    1.1025 C   0  0  0  0  0  0  0  0  0  0  0  0
   -1.4033   -1.0154    2.1931 O   0  0  0  0  0  0  0  0  0  0  0  0
   -1.7224    5.4745   -2.3480 O   0  0  0  0  0  0  0  0  0  0  0  0
    1.0149   -4.7524   -0.8119 C   0  0  0  0  0  0  0  0  0  0  0  0
   -0.3993   -0.2701    2.0302 C   0  0  0  0  0  0  0  0  0  0  0  0
    0.4416    4.5996   -1.2465 O   0  0  0  0  0  0  0  0  0  0  0  0
  1  8  1  0
  1 20  2  0
  4  2  1  6
  2  8  1  0
  3 13  1  0
  3 14  1  0
  3 19  2  0
  4  6  1  0
  4 21  1  0
  5 17  2  0
  5 20  1  0
  6 11  2  0
  6 12  1  0
  7 21  1  0
  8 15  2  0
  9 12  2  0
  9 14  1  0
 10 11  1  0
 10 14  2  0
 10 22  1  0
 11 16  1  0
 15 17  1  0
 18 21  2  0
M  CHG  2   3   1  13  -1
M  END
