
     RDKit          3D

 19 19  0  0  0  0  0  0  0  0999 V2000
    4.3678    0.9808   -0.2429 C   0  0  0  0  0  0  0  0  0  0  0  0
    0.9346   -0.8565   -2.4226 O   0  0  0  0  0  0  0  0  0  0  0  0
    4.8384   -1.5914    0.7443 C   0  0  0  0  0  0  0  0  0  0  0  0
    0.3104   -2.3388   -0.7834 O   0  0  0  0  0  0  0  0  0  0  0  0
   -1.6749    0.2023    0.1993 N   0  0  0  0  0  0  0  0  0  0  0  0
    0.6666   -1.1705   -1.0936 C   0  0  0  0  0  0  0  0  0  0  0  0
   -2.9399    2.1271   -0.1947 O   0  0  0  0  0  0  0  0  0  0  0  0
    3.5269   -1.1566    0.5279 C   0  0  0  0  0  0  0  0  0  0  0  0
   -4.2111    0.2088    0.4800 C   0  0  0  0  0  0  0  0  0  0  0  0
   -2.9202    0.9114    0.1442 C   0  0  0  0  0  0  0  0  0  0  0  0
   -0.4089    0.8613   -0.1274 C   0  0  0  0  0  0  0  0  0  0  0  0
    1.9871    0.6289   -0.2088 O   0  0  0  0  0  0  0  0  0  0  0  0
    3.2820    0.1386    0.0285 C   0  0  0  0  0  0  0  0  0  0  0  0
   -5.1231    0.1519   -0.7491 C   0  0  0  0  0  0  0  0  0  0  0  0
    7.5584   -1.2907    0.7403 Cl  0  0  0  0  0  0  0  0  0  0  0  0
    0.7760   -0.1093   -0.0341 C   0  0  2  0  0  0  0  0  0  0  0  0
    5.6780    0.5439   -0.0256 C   0  0  0  0  0  0  0  0  0  0  0  0
    5.9145   -0.7426    0.4678 C   0  0  0  0  0  0  0  0  0  0  0  0
   -4.9128    0.9039    1.6509 C   0  0  0  0  0  0  0  0  0  0  0  0
  1 13  2  0
  1 17  1  0
  2  6  1  0
  3  8  2  0
  3 18  1  0
  4  6  2  0
  5 10  1  0
  5 11  1  0
  6 16  1  0
  7 10  2  0
  8 13  1  0
  9 10  1  0
  9 14  1  0
  9 19  1  0
 16 11  1  6
 12 13  1  0
 12 16  1  0
 15 18  1  0
 17 18  2  0
M  END
