
     RDKit          3D

 24 25  0  0  0  0  0  0  0  0999 V2000
    0.4600    2.0684   -0.1079 O   0  0  0  0  0  0  0  0  0  0  0  0
   -0.4807   -0.8116    0.0426 C   0  0  1  0  0  0  0  0  0  0  0  0
    2.5319    1.2134   -0.5685 O   0  0  0  0  0  0  0  0  0  0  0  0
    0.9407   -0.3442    0.2864 C   0  0  0  0  0  0  0  0  0  0  0  0
   -4.3062    0.5727   -2.2147 C   0  0  0  0  0  0  0  0  0  0  0  0
    6.0987   -0.7377    1.4997 C   0  0  0  0  0  0  0  0  0  0  0  0
   -5.6091   -1.4104   -2.7011 C   0  0  0  0  0  0  0  0  0  0  0  0
    1.3650    1.0132   -0.1363 C   0  0  0  0  0  0  0  0  0  0  0  0
    1.7573   -1.1758    0.8725 N   0  0  0  0  0  0  0  0  0  0  0  0
   -6.3776    0.7398   -3.3855 F   0  0  0  0  0  0  0  0  0  0  0  0
   -3.3244   -0.2128   -1.5845 C   0  0  0  0  0  0  0  0  0  0  0  0
   -0.8279   -0.0070    2.3982 N   0  0  0  0  0  0  0  0  0  0  0  0
   -3.5136   -1.6053   -1.5023 C   0  0  0  0  0  0  0  0  0  0  0  0
   -4.6483   -2.1987   -2.0635 C   0  0  0  0  0  0  0  0  0  0  0  0
   -1.4735   -0.4506    1.1597 C   0  0  1  0  0  0  0  0  0  0  0  0
   -5.4397   -0.0255   -2.7748 C   0  0  0  0  0  0  0  0  0  0  0  0
    5.6333    0.2438    0.6945 N   0  0  0  0  0  0  0  0  0  0  0  0
    6.4198    1.2402    0.2347 C   0  0  0  0  0  0  0  0  0  0  0  0
   -2.1211    0.4520   -0.9484 C   0  0  2  0  0  0  0  0  0  0  0  0
   -0.9541   -0.3075   -1.1898 O   0  0  0  0  0  0  0  0  0  0  0  0
    3.0674   -0.8674    1.2757 N   0  0  0  0  0  0  0  0  0  0  0  0
    5.2923   -1.7890    1.9433 C   0  0  0  0  0  0  0  0  0  0  0  0
    3.9137   -1.9225    1.7414 C   0  0  0  0  0  0  0  0  0  0  0  0
   -2.3117    0.6401    0.5522 C   0  0  0  0  0  0  0  0  0  0  0  0
  1  8  1  0
  2  4  1  0
  2 15  1  0
  2 20  1  6
  3  8  2  0
  4  8  1  0
  4  9  2  3
  5 11  1  0
  5 16  2  0
  6 17  4  0
  6 22  4  0
  7 14  2  0
  7 16  1  0
  9 21  1  0
 10 16  1  0
 11 13  2  0
 19 11  1  1
 15 12  1  1
 13 14  1  0
 15 24  1  0
 17 18  4  0
 19 20  1  0
 19 24  1  0
 21 23  1  0
 22 23  4  0
M  END
