
     RDKit          3D

 15 15  0  0  0  0  0  0  0  0999 V2000
  -19.3067   34.5883    5.8210 C   0  0  0  0  0  0  0  0  0  0  0  0
  -16.7390   34.3141    3.5788 C   0  0  0  0  0  0  0  0  0  0  0  0
  -19.6699   36.6025    6.7931 C   0  0  0  0  0  0  0  0  0  0  0  0
  -15.8916   32.9415    4.0682 N   0  0  0  0  0  0  0  0  0  0  0  0
  -23.9665   36.3081    7.0377 C   0  0  0  0  0  0  0  0  0  0  0  0
  -21.8367   37.2964    7.6295 C   0  0  0  0  0  0  0  0  0  0  0  0
  -15.3045   35.2959    2.0089 O   0  0  0  0  0  0  0  0  0  0  0  0
  -20.4590   37.4241    7.5837 C   0  0  0  0  0  0  0  0  0  0  0  0
  -21.6896   35.5247    6.1343 C   0  0  0  0  0  0  0  0  0  0  0  0
  -22.4839   36.3270    6.9172 C   0  0  0  0  0  0  0  0  0  0  0  0
  -15.7966   35.4750    3.3201 C   0  0  0  0  0  0  0  0  0  0  0  0
  -20.2998   35.6613    6.1118 C   0  0  0  0  0  0  0  0  0  0  0  0
  -18.0047   34.8711    4.9905 C   0  0  0  0  0  0  0  0  0  0  0  0
  -14.5119   32.2647    2.0782 O   0  0  0  0  0  0  0  0  0  0  0  0
  -14.9898   32.1482    3.1689 C   0  0  0  0  0  0  0  0  0  0  0  0
  1 12  1  0
  1 13  1  0
  2  4  1  0
  2 11  1  0
  2 13  1  0
  3  8  1  0
  3 12  1  0
  4 15  1  0
  5 10  1  0
  6  8  2  0
  6 10  1  0
  7 11  1  0
  9 10  2  0
  9 12  1  0
 14 15  2  0
M  END
$$$$
