
     RDKit          3D

 27 28  0  0  0  0  0  0  0  0999 V2000
  -19.0494  -11.4419   12.3908 C   0  0  0  0  0  0  0  0  0  0  0  0
  -18.9339  -10.1822   13.1396 C   0  0  0  0  0  0  0  0  0  0  0  0
  -18.5290  -13.7163    9.1711 C   0  0  0  0  0  0  0  0  0  0  0  0
  -16.2616   -6.6259   15.4024 P   0  0  0  0  0  0  0  0  0  0  0  0
  -15.0288   -7.2762   15.3697 O   0  0  0  0  0  0  0  0  0  0  0  0
  -21.8558  -12.0888    9.0984 C   0  0  0  0  0  0  0  0  0  0  0  0
  -16.9470   -7.1821   14.0225 O   0  0  0  0  0  0  0  0  0  0  0  0
  -16.0461   -5.0926   15.2319 O   0  0  0  0  0  0  0  0  0  0  0  0
  -19.5359   -7.9963   13.5707 C   0  0  0  0  0  0  0  0  0  0  0  0
  -17.1196   -6.9596   16.6011 O   0  0  0  0  0  0  0  0  0  0  0  0
  -21.9654  -12.0246   10.6788 F   0  0  0  0  0  0  0  0  0  0  0  0
  -19.9986   -9.2906   13.2843 C   0  0  0  0  0  0  0  0  0  0  0  0
  -18.4187  -12.6911   10.1526 N   0  0  0  0  0  0  0  0  0  0  0  0
  -18.1373   -8.0760   14.0747 C   0  0  0  0  0  0  0  0  0  0  0  0
  -21.8878  -10.6164   13.9286 O   0  0  0  0  0  0  0  0  0  0  0  0
  -19.9067  -13.4272    8.6621 C   0  0  0  0  0  0  0  0  0  0  0  0
  -20.5863  -12.4595    9.3559 C   0  0  0  0  0  0  0  0  0  0  0  0
  -21.4041   -9.5939   13.2151 C   0  0  0  0  0  0  0  0  0  0  0  0
  -22.1361   -8.8071   12.5458 O   0  0  0  0  0  0  0  0  0  0  0  0
  -16.7156   -9.8763   14.4156 O   0  0  0  0  0  0  0  0  0  0  0  0
  -22.4401  -14.0419    6.0653 F   0  0  0  0  0  0  0  0  0  0  0  0
  -19.8179  -14.9070    6.8287 F   0  0  0  0  0  0  0  0  0  0  0  0
  -22.4596  -12.5958    7.9547 C   0  0  0  0  0  0  0  0  0  0  0  0
  -17.7776   -9.4387   13.9299 C   0  0  0  0  0  0  0  0  0  0  0  0
  -20.5035  -13.9628    7.5295 C   0  0  0  0  0  0  0  0  0  0  0  0
  -21.8087  -13.5413    7.1549 C   0  0  0  0  0  0  0  0  0  0  0  0
  -19.0110  -12.2734   11.1967 C   0  0  0  0  0  0  0  0  0  0  0  0
  1  2  1  0
  1 27  1  0
  2 12  2  0
  2 24  1  0
  3 13  1  0
  3 16  1  0
  4  5  1  0
  4  7  1  0
  4  8  1  0
  4 10  1  0
  6 11  1  0
  6 17  1  0
  6 23  2  0
  7 14  1  0
  9 12  1  0
  9 14  1  0
 12 18  1  0
 13 27  1  0
 14 24  1  0
 15 18  1  0
 16 17  2  0
 16 25  1  0
 18 19  2  0
 20 24  2  0
 21 26  1  0
 22 25  1  0
 23 26  1  0
 25 26  2  0
M  END
$$$$
