
     RDKit          3D

 10  7  0  0  0  0  0  0  0  0999 V2000
    7.4300  -35.8988   -0.0303 C   0  0  0  0  0  0  0  0  0  0  0  0
    7.2634  -38.8661    1.0024 C   0  0  0  0  0  0  0  0  0  0  0  0
    8.9396  -40.5830    0.5693 O   0  0  0  0  0  0  0  0  0  0  0  0
    6.9677  -37.2593    8.3233 O   0  0  0  0  0  0  0  0  0  0  0  0
    7.1286  -37.5421    1.4074 O   0  0  0  0  0  0  0  0  0  0  0  0
    8.0262  -36.7014    0.7984 C   0  0  0  0  0  0  0  0  0  0  0  0
    8.6264  -39.2024    0.5025 C   0  0  0  0  0  0  0  0  0  0  0  0
    8.7721  -35.4166    5.5988 S   0  0  0  0  0  0  0  0  0  0  0  0
    5.7872  -38.2751    7.8046 C   0  0  0  0  0  0  0  0  0  0  0  0
    7.6289  -35.7871    4.3518 C   0  0  0  0  0  0  0  0  0  0  0  0
  1  6  2  0
  2  5  1  0
  2  7  1  0
  3  7  1  0
  4  9  1  0
  5  6  1  0
  8 10  2  0
M  END
$$$$
