
     RDKit          3D

 33 35  0  0  0  0  0  0  0  0999 V2000
   -6.6382  -49.9365  -20.1853 O   0  0  0  0  0  0  0  0  0  0  0  0
   -9.0077  -49.4086  -18.1727 O   0  0  0  0  0  0  0  0  0  0  0  0
   -5.4709  -55.6289  -17.7825 C   0  0  0  0  0  0  0  0  0  0  0  0
   -6.6470  -57.2831  -17.4831 N   0  0  0  0  0  0  0  0  0  0  0  0
   -9.7569  -51.3840  -14.3519 O   0  0  0  0  0  0  0  0  0  0  0  0
   -6.7526  -52.5113  -18.1018 C   0  0  0  0  0  0  0  0  0  0  0  0
   -9.6264  -50.5400  -16.6880 O   0  0  0  0  0  0  0  0  0  0  0  0
   -7.2975  -55.1709  -17.6718 C   0  0  0  0  0  0  0  0  0  0  0  0
   -9.0817  -55.1624  -16.3020 O   0  0  0  0  0  0  0  0  0  0  0  0
   -7.7115  -48.1537  -21.6066 O   0  0  0  0  0  0  0  0  0  0  0  0
   -8.9047  -51.2818  -15.4558 P   0  0  0  0  0  0  0  0  0  0  0  0
   -9.0599  -47.9093  -16.7343 O   0  0  0  0  0  0  0  0  0  0  0  0
   -5.6131  -58.0614  -17.5593 C   0  0  0  0  0  0  0  0  0  0  0  0
   -7.8398  -54.8864  -16.3107 C   0  0  0  0  0  0  0  0  0  0  0  0
   -5.7928  -51.9056  -19.2457 C   0  0  0  0  0  0  0  0  0  0  0  0
   -6.3377  -52.6823  -17.1419 C   0  0  0  0  0  0  0  0  0  0  0  0
   -5.6690  -59.3715  -17.4537 O   0  0  0  0  0  0  0  0  0  0  0  0
   -7.5362  -50.6499  -15.2461 O   0  0  0  0  0  0  0  0  0  0  0  0
   -4.2371  -56.1703  -18.1203 C   0  0  0  0  0  0  0  0  0  0  0  0
   -7.6190  -53.3699  -16.0581 C   0  0  0  0  0  0  0  0  0  0  0  0
   -6.2929  -50.5570  -19.0554 C   0  0  0  0  0  0  0  0  0  0  0  0
   -3.1865  -58.2006  -17.8113 N   0  0  0  0  0  0  0  0  0  0  0  0
   -7.0190  -54.0788  -18.2089 O   0  0  0  0  0  0  0  0  0  0  0  0
   -8.7658  -52.6431  -16.0753 O   0  0  0  0  0  0  0  0  0  0  0  0
   -6.5849  -56.1354  -17.7020 N   0  0  0  0  0  0  0  0  0  0  0  0
   -6.9166  -48.3716  -20.3698 P   0  0  0  0  0  0  0  0  0  0  0  0
   -4.4461  -57.5543  -17.8597 C   0  0  0  0  0  0  0  0  0  0  0  0
  -10.5888  -48.6592  -18.8305 O   0  0  0  0  0  0  0  0  0  0  0  0
   -5.4228  -53.2600  -16.7178 O   0  0  0  0  0  0  0  0  0  0  0  0
   -4.8272  -52.2498  -18.9937 O   0  0  0  0  0  0  0  0  0  0  0  0
   -9.3565  -48.2612  -18.0629 P   0  0  0  0  0  0  0  0  0  0  0  0
   -5.9204  -47.4832  -19.8148 O   0  0  0  0  0  0  0  0  0  0  0  0
   -8.0011  -47.8045  -19.1859 O   0  0  0  0  0  0  0  0  0  0  0  0
  1 21  1  0
  1 26  1  0
  2 31  1  0
  3 19  4  0
  3 25  4  0
  4 13  4  0
  4 25  4  0
  5 11  2  0
  6 15  1  0
  6 16  1  0
  6 23  1  0
  7 11  1  0
  8 14  1  0
  8 23  1  0
  8 25  1  0
  9 14  1  0
 10 26  1  0
 11 18  1  0
 11 24  1  0
 12 31  2  0
 13 17  2  0
 13 27  4  0
 14 20  1  0
 15 21  1  0
 15 30  1  0
 16 20  1  0
 16 23  1  0
 16 29  1  0
 19 27  4  0
 20 24  1  0
 22 27  1  0
 26 32  2  0
 26 33  1  0
 28 31  1  0
 31 33  1  0
M  END
$$$$
