
     RDKit          3D

 33 36  0  0  0  0  0  0  0  0999 V2000
   39.5826   46.4799   36.5631 C   0  0  0  0  0  0  0  0  0  0  0  0
   39.0639   46.7437   39.3493 C   0  0  0  0  0  0  0  0  0  0  0  0
   35.2911   53.9813   44.5081 C   0  0  0  0  0  0  0  0  0  0  0  0
   38.3129   46.0895   37.0602 C   0  0  0  0  0  0  0  0  0  0  0  0
   38.6214   48.1978   41.2807 C   0  0  0  0  0  0  0  0  0  0  0  0
   32.1435   54.1290   46.2503 O   0  0  0  0  0  0  0  0  0  0  0  0
   36.6470   52.2130   43.4413 C   0  0  0  0  0  0  0  0  0  0  0  0
   32.3829   55.1891   45.8389 C   0  0  0  0  0  0  0  0  0  0  0  0
   36.5395   54.6703   44.0237 N   0  0  0  0  0  0  0  0  0  0  0  0
   36.6171   50.7469   43.2978 N   0  0  0  0  0  0  0  0  0  0  0  0
   34.5927   51.7510   45.0479 C   0  0  0  0  0  0  0  0  0  0  0  0
   38.8086   46.8733   40.8322 C   0  0  0  0  0  0  0  0  0  0  0  0
   38.1754   48.4334   42.6125 C   0  0  0  0  0  0  0  0  0  0  0  0
   40.5766   47.0075   37.4240 C   0  0  0  0  0  0  0  0  0  0  0  0
   38.0169   49.8143   42.9654 C   0  0  0  0  0  0  0  0  0  0  0  0
   38.0662   46.2155   38.4599 C   0  0  0  0  0  0  0  0  0  0  0  0
   31.2919   56.1915   45.5569 C   0  0  0  0  0  0  0  0  0  0  0  0
   38.2579   45.9725   43.0916 C   0  0  0  0  0  0  0  0  0  0  0  0
   33.7403   55.5928   45.5933 N   0  0  0  0  0  0  0  0  0  0  0  0
   34.8591   54.6404   45.8104 C   0  0  0  0  0  0  0  0  0  0  0  0
   29.9587   58.9388   45.8891 N   0  0  0  0  0  0  0  0  0  0  0  0
   34.0351   56.8681   45.1419 C   0  0  0  0  0  0  0  0  0  0  0  0
   40.3085   47.1195   38.8142 C   0  0  0  0  0  0  0  0  0  0  0  0
   38.6637   45.7692   41.7542 C   0  0  0  0  0  0  0  0  0  0  0  0
   34.8419   50.2512   44.8919 C   0  0  0  0  0  0  0  0  0  0  0  0
   33.0160   57.7978   44.8886 C   0  0  0  0  0  0  0  0  0  0  0  0
   30.6440   58.5208   44.7724 C   0  0  0  0  0  0  0  0  0  0  0  0
   35.8207   52.6311   44.6818 C   0  0  0  0  0  0  0  0  0  0  0  0
   38.9585   50.6015   43.1384 O   0  0  0  0  0  0  0  0  0  0  0  0
   35.5008   49.8908   43.5280 C   0  0  0  0  0  0  0  0  0  0  0  0
   37.9907   47.2846   43.4883 C   0  0  0  0  0  0  0  0  0  0  0  0
   31.6288   57.4723   45.0748 C   0  0  0  0  0  0  0  0  0  0  0  0
   37.3902   45.5695   36.1657 N   0  0  0  0  0  0  0  0  0  0  0  0
  1  4  1  0
  1 14  2  0
  2 12  1  0
  2 16  1  0
  2 23  2  0
  3  9  1  0
  3 20  1  0
  3 28  1  0
  4 16  2  0
  4 33  1  0
  5 12  1  0
  5 13  2  0
  6  8  2  0
  7 10  1  0
  7 28  1  0
  8 17  1  0
  8 19  1  0
 10 15  1  0
 10 30  1  0
 11 25  1  0
 11 28  1  0
 12 24  2  0
 13 15  1  0
 13 31  1  0
 14 23  1  0
 15 29  2  0
 17 32  2  0
 18 24  1  0
 18 31  2  0
 19 20  1  0
 19 22  1  0
 21 27  1  0
 22 26  2  0
 25 30  1  0
 26 32  1  0
 27 32  1  0
M  END
$$$$
