
     RDKit          3D

 25 28  0  0  0  0  0  0  0  0999 V2000
   -5.1546   12.6000   18.4267 O   0  0  0  0  0  0  0  0  0  0  0  0
   -7.0611   12.8981   16.3768 N   0  0  0  0  0  0  0  0  0  0  0  0
  -10.8874   13.1231   17.0251 N   0  0  0  0  0  0  0  0  0  0  0  0
    0.3141    7.2639   16.8582 P   0  0  0  0  0  0  0  0  0  0  0  0
    1.1211    7.8566   17.9060 O   0  0  0  0  0  0  0  0  0  0  0  0
   -1.2245    9.2876   14.3957 O   0  0  0  0  0  0  0  0  0  0  0  0
   -3.5265    9.2637   15.7874 O   0  0  0  0  0  0  0  0  0  0  0  0
   -8.8122   14.0365   17.8782 N   0  0  0  0  0  0  0  0  0  0  0  0
   -1.9908    9.3214   15.6344 P   0  0  0  0  0  0  0  0  0  0  0  0
    1.0287    7.8126   15.6113 O   0  0  0  0  0  0  0  0  0  0  0  0
   -1.7446   10.6924   16.5448 O   0  0  0  0  0  0  0  0  0  0  0  0
   -6.1233   13.4235   17.4794 C   0  0  0  0  0  0  0  0  0  0  0  0
  -10.1330   12.2873   16.1440 C   0  0  0  0  0  0  0  0  0  0  0  0
   -8.2871   13.1641   16.7935 C   0  0  0  0  0  0  0  0  0  0  0  0
   -3.5436   13.2309   16.8786 C   0  0  0  0  0  0  0  0  0  0  0  0
  -10.7574   11.4401   15.3171 N   0  0  0  0  0  0  0  0  0  0  0  0
   -3.5492   12.9854   16.7488 C   0  0  0  0  0  0  0  0  0  0  0  0
  -10.1805   13.9839   17.8693 C   0  0  0  0  0  0  0  0  0  0  0  0
   -8.0827   12.0335   15.5492 N   0  0  0  0  0  0  0  0  0  0  0  0
   -2.1182   12.0942   16.1187 C   0  0  0  0  0  0  0  0  0  0  0  0
   -3.8729   12.3286   17.9709 C   0  0  0  0  0  0  0  0  0  0  0  0
   -7.0054   12.1588   15.3605 C   0  0  0  0  0  0  0  0  0  0  0  0
   -4.9524   13.5507   16.4319 O   0  0  0  0  0  0  0  0  0  0  0  0
   -1.0437    8.1781   16.8637 N   0  0  0  0  0  0  0  0  0  0  0  0
   -0.1790    5.9932   16.7877 O   0  0  0  0  0  0  0  0  0  0  0  0
  1 12  1  0
  1 21  1  0
  2 12  1  0
  2 14  4  0
  2 22  4  0
  3 13  4  0
  3 18  4  0
  4  5  2  0
  4 10  1  0
  4 24  1  0
  4 25  1  0
  6  9  1  0
  7  9  2  0
  8 14  4  0
  8 18  4  0
  9 11  1  0
  9 24  1  0
 11 20  1  0
 12 23  1  0
 13 16  1  0
 14 19  4  0
 15 17  1  0
 15 21  1  0
 15 23  1  0
 17 20  1  0
 17 21  1  0
 17 23  1  0
 19 22  4  0
M  END
$$$$
