
     RDKit          3D

 20 21  0  0  0  0  0  0  0  0999 V2000
   -6.3277   12.6612   16.2235 N   0  0  0  0  0  0  0  0  0  0  0  0
   -9.0430   14.1271   17.6986 C   0  0  0  0  0  0  0  0  0  0  0  0
  -10.2477   11.4752   15.2907 N   0  0  0  0  0  0  0  0  0  0  0  0
   -9.2289   12.3515   15.9976 C   0  0  0  0  0  0  0  0  0  0  0  0
   -0.5422    7.5586   15.2207 O   0  0  0  0  0  0  0  0  0  0  0  0
   -1.4211    9.0374   17.0496 C   0  0  0  0  0  0  0  0  0  0  0  0
    1.1420    9.1237   16.1299 O   0  0  0  0  0  0  0  0  0  0  0  0
   -7.7760   11.7382   15.5004 N   0  0  0  0  0  0  0  0  0  0  0  0
    0.0434    8.1630   16.4269 P   0  0  0  0  0  0  0  0  0  0  0  0
   -4.1369   14.5555   16.7250 O   0  0  0  0  0  0  0  0  0  0  0  0
   -1.2183   10.5587   17.4209 C   0  0  0  0  0  0  0  0  0  0  0  0
   -6.4126   11.7142   15.2348 C   0  0  0  0  0  0  0  0  0  0  0  0
   -2.8640   12.6878   17.3656 C   0  0  0  0  0  0  0  0  0  0  0  0
   -4.0104   13.2169   16.4976 C   0  0  0  0  0  0  0  0  0  0  0  0
   -7.7140   13.8818   17.6754 N   0  0  0  0  0  0  0  0  0  0  0  0
   -5.2716   12.7246   17.0003 C   0  0  0  0  0  0  0  0  0  0  0  0
   -7.5839   12.9841   16.5790 C   0  0  0  0  0  0  0  0  0  0  0  0
   -9.8447   13.3364   16.9964 N   0  0  0  0  0  0  0  0  0  0  0  0
    0.7526    7.2600   17.5098 O   0  0  0  0  0  0  0  0  0  0  0  0
   -2.0077   11.6283   16.6016 C   0  0  0  0  0  0  0  0  0  0  0  0
  1 12  4  0
  1 16  1  0
  1 17  4  0
  2 15  4  0
  2 18  4  0
  3  4  1  0
  4  8  4  0
  4 18  4  0
  5  9  1  0
  6  9  1  0
  6 11  1  0
  7  9  2  0
  8 12  4  0
  8 17  4  0
  9 19  1  0
 10 14  1  0
 11 20  1  0
 13 14  1  0
 13 20  1  0
 14 16  1  0
 15 17  4  0
M  END
$$$$
