
     RDKit          3D

 30 33  0  0  0  0  0  0  0  0999 V2000
    3.0391    8.8907   17.1985 O   0  0  0  0  0  0  0  0  0  0  0  0
   -8.3268   13.0179   16.5094 C   0  0  0  0  0  0  0  0  0  0  0  0
   -6.7325   12.0217   15.3745 C   0  0  0  0  0  0  0  0  0  0  0  0
   -4.5735   13.8880   18.5844 C   0  0  0  0  0  0  0  0  0  0  0  0
   -0.7985    8.4814   14.0275 O   0  0  0  0  0  0  0  0  0  0  0  0
   -1.0944    7.6619   16.3560 O   0  0  0  0  0  0  0  0  0  0  0  0
  -10.1824   11.8330   15.7402 C   0  0  0  0  0  0  0  0  0  0  0  0
   -5.4496   13.7592   18.3218 C   0  0  0  0  0  0  0  0  0  0  0  0
   -4.7854   13.6731   16.2156 O   0  0  0  0  0  0  0  0  0  0  0  0
   -1.1298   10.0710   15.8464 O   0  0  0  0  0  0  0  0  0  0  0  0
  -10.3772   13.5853   17.3322 C   0  0  0  0  0  0  0  0  0  0  0  0
   -3.0292   11.6670   16.1505 O   0  0  0  0  0  0  0  0  0  0  0  0
   -3.2960   12.2423   17.3582 C   0  0  0  0  0  0  0  0  0  0  0  0
  -10.7626   10.8991   14.8346 N   0  0  0  0  0  0  0  0  0  0  0  0
   -3.8236   13.5996   17.2290 C   0  0  0  0  0  0  0  0  0  0  0  0
   -2.6482   10.1572   16.3280 P   0  0  0  0  0  0  0  0  0  0  0  0
   -6.9565   12.9948   16.3409 N   0  0  0  0  0  0  0  0  0  0  0  0
   -7.8117   11.4580   15.0414 N   0  0  0  0  0  0  0  0  0  0  0  0
   -2.7991    9.7537   17.7811 O   0  0  0  0  0  0  0  0  0  0  0  0
   -0.5490    8.6392   15.4133 P   0  0  0  0  0  0  0  0  0  0  0  0
   -8.8563   12.0578   15.7257 C   0  0  0  0  0  0  0  0  0  0  0  0
   -6.0419   13.8838   16.8526 C   0  0  0  0  0  0  0  0  0  0  0  0
   -9.0120   13.8412   17.3892 N   0  0  0  0  0  0  0  0  0  0  0  0
    1.7057    8.3008   17.2061 P   0  0  0  0  0  0  0  0  0  0  0  0
    1.6484    6.8680   17.4338 O   0  0  0  0  0  0  0  0  0  0  0  0
  -10.8922   12.6093   16.6578 N   0  0  0  0  0  0  0  0  0  0  0  0
    0.9988    8.8108   15.8303 N   0  0  0  0  0  0  0  0  0  0  0  0
   -5.1075   15.3459   18.2964 O   0  0  0  0  0  0  0  0  0  0  0  0
    0.7612    8.9601   18.2686 O   0  0  0  0  0  0  0  0  0  0  0  0
   -3.5141    9.2995   15.4527 O   0  0  0  0  0  0  0  0  0  0  0  0
  1 24  1  0
  2 17  1  0
  2 21  1  0
  2 23  2  0
  3 17  1  0
  3 18  2  0
  4  8  1  0
  4 15  1  0
  4 28  1  0
  5 20  2  0
  6 20  1  0
  7 14  1  0
  7 21  2  0
  7 26  1  0
  8 22  1  0
  8 28  1  0
  9 15  1  0
  9 22  1  0
 10 16  1  0
 10 20  1  0
 11 23  1  0
 11 26  2  0
 12 13  1  0
 12 16  1  0
 13 15  1  0
 16 19  2  0
 16 30  1  0
 17 22  1  0
 18 21  1  0
 20 27  1  0
 24 25  2  0
 24 27  1  0
 24 29  1  0
M  END
$$$$
