
     RDKit          3D

 29 31  0  0  0  0  0  0  0  0999 V2000
    1.4441    8.3529   16.2115 N   0  0  0  0  0  0  0  0  0  0  0  0
   -3.0991    9.5104   15.3714 O   0  0  0  0  0  0  0  0  0  0  0  0
   -8.8500   12.4466   16.0556 C   0  0  0  0  0  0  0  0  0  0  0  0
   -2.3572   10.0603   16.6545 P   0  0  0  0  0  0  0  0  0  0  0  0
   -8.2365   13.4173   16.8263 C   0  0  0  0  0  0  0  0  0  0  0  0
   -6.8173   12.2544   15.6791 C   0  0  0  0  0  0  0  0  0  0  0  0
   -4.7249   14.1916   16.4410 O   0  0  0  0  0  0  0  0  0  0  0  0
  -10.9757   13.1559   16.8915 N   0  0  0  0  0  0  0  0  0  0  0  0
   -3.0105   12.5402   16.2636 C   0  0  0  0  0  0  0  0  0  0  0  0
   -3.6607   13.4639   17.2137 C   0  0  0  0  0  0  0  0  0  0  0  0
   -0.0532    8.1916   15.9169 P   0  0  0  0  0  0  0  0  0  0  0  0
   -0.5375    8.4759   14.3712 O   0  0  0  0  0  0  0  0  0  0  0  0
   -0.7572    9.5166   16.9376 C   0  0  0  0  0  0  0  0  0  0  0  0
    1.6170    6.7854   18.1609 O   0  0  0  0  0  0  0  0  0  0  0  0
  -10.9460   11.3323   15.3357 N   0  0  0  0  0  0  0  0  0  0  0  0
    3.5438    8.4300   17.6558 O   0  0  0  0  0  0  0  0  0  0  0  0
   -2.1656   11.6228   16.9884 O   0  0  0  0  0  0  0  0  0  0  0  0
   -0.5478    6.8683   16.4018 O   0  0  0  0  0  0  0  0  0  0  0  0
   -7.9273   11.6960   15.3121 N   0  0  0  0  0  0  0  0  0  0  0  0
   -5.8952   14.1199   17.2242 C   0  0  0  0  0  0  0  0  0  0  0  0
   -4.3139   12.7568   18.3813 C   0  0  0  0  0  0  0  0  0  0  0  0
  -10.1938   14.0626   17.5829 C   0  0  0  0  0  0  0  0  0  0  0  0
    1.4085    9.3368   18.7191 O   0  0  0  0  0  0  0  0  0  0  0  0
   -6.9257   13.2839   16.5782 N   0  0  0  0  0  0  0  0  0  0  0  0
   -5.1199   14.5984   19.5230 O   0  0  0  0  0  0  0  0  0  0  0  0
   -5.5189   13.5946   18.6160 C   0  0  0  0  0  0  0  0  0  0  0  0
  -10.2703   12.2999   16.0662 C   0  0  0  0  0  0  0  0  0  0  0  0
   -8.8817   14.2890   17.6690 N   0  0  0  0  0  0  0  0  0  0  0  0
    2.0727    8.1126   17.6915 P   0  0  0  0  0  0  0  0  0  0  0  0
  1 11  1  0
  1 29  1  0
  2  4  1  0
  3  5  1  0
  3 19  1  0
  3 27  2  0
  4 13  1  0
  4 17  1  0
  5 24  1  0
  5 28  2  0
  6 19  2  0
  6 24  1  0
  7 10  1  0
  7 20  1  0
  8 22  2  0
  8 27  1  0
  9 10  1  0
  9 17  1  0
 10 21  1  0
 11 12  2  0
 11 13  1  0
 11 18  1  0
 14 29  1  0
 15 27  1  0
 16 29  1  0
 20 24  1  0
 20 26  1  0
 21 26  1  0
 22 28  1  0
 23 29  2  0
 25 26  1  0
M  END
$$$$
