
     RDKit          3D

 11 12  0  0  0  0  0  0  0  0999 V2000
   90.6394   68.4630   -3.0626 C   0  0  0  0  0  0  0  0  0  0  0  0
   93.8219   71.3545   -6.0589 C   0  0  0  0  0  0  0  0  0  0  0  0
   93.8472   70.1550   -2.5627 C   0  0  0  0  0  0  0  0  0  0  0  0
   92.2276   70.0998   -4.6048 C   0  0  0  0  0  0  0  0  0  0  0  0
   91.8108   68.8872   -2.5254 N   0  0  0  0  0  0  0  0  0  0  0  0
   91.0729   69.6190   -5.0875 N   0  0  0  0  0  0  0  0  0  0  0  0
   92.6158   69.6915   -3.2087 C   0  0  0  0  0  0  0  0  0  0  0  0
   92.6235   72.1456   -6.1105 C   0  0  0  0  0  0  0  0  0  0  0  0
   89.6668   67.6259   -2.2729 C   0  0  0  0  0  0  0  0  0  0  0  0
   93.1116   70.9138   -5.4476 N   0  0  0  0  0  0  0  0  0  0  0  0
   90.2780   68.7716   -4.3659 C   0  0  0  0  0  0  0  0  0  0  0  0
  1  5  2  0
  1  9  1  0
  1 11  1  0
  2  8  1  0
  2 10  1  0
  3  7  1  0
  4  6  1  0
  4  7  2  0
  4 10  1  0
  5  7  1  0
  6 11  2  0
  8 10  1  0
M  END
