
     RDKit          3D

 17 18  0  0  0  0  0  0  0  0999 V2000
   -4.1108   -1.3624   -0.7229 C   0  0  0  0  0  0  0  0  0  0  0  0
    0.5921    0.1225   -0.2944 C   0  0  0  0  0  0  0  0  0  0  0  0
   -1.8182   -0.3256   -0.7937 C   0  0  0  0  0  0  0  0  0  0  0  0
   -2.6315    1.5599    1.1394 C   0  0  0  0  0  0  0  0  0  0  0  0
    2.7542    1.4596   -0.1349 N   0  0  0  0  0  0  0  0  0  0  0  0
   -1.1589    1.1398    1.1640 C   0  0  0  0  0  0  0  0  0  0  0  0
   -3.2850   -0.0892   -0.5045 C   0  0  2  0  0  0  0  0  0  0  0  0
    3.8405    0.5364   -0.4382 C   0  0  0  0  0  0  0  0  0  0  0  0
    3.3057   -0.7789    1.5249 O   0  0  0  0  0  0  0  0  0  0  0  0
    0.8905    2.2553   -1.2586 O   0  0  0  0  0  0  0  0  0  0  0  0
    1.0765   -1.1257   -0.1757 C   0  0  0  0  0  0  0  0  0  0  0  0
    2.4504   -1.5677   -0.5944 C   0  0  0  0  0  0  0  0  0  0  0  0
   -3.4932    0.4050    0.8662 N   0  0  0  0  0  0  0  0  0  0  0  0
   -1.4880   -1.0336   -1.7853 O   0  0  0  0  0  0  0  0  0  0  0  0
    3.5863   -0.8550    0.1498 C   0  0  1  0  0  0  0  0  0  0  0  0
    1.4256    1.2961   -0.6415 C   0  0  0  0  0  0  0  0  0  0  0  0
   -0.8030    0.3490   -0.0208 N   0  0  0  0  0  0  0  0  0  0  0  0
  7  1  1  1
  2 11  2  0
  2 16  1  0
  2 17  1  0
  3  7  1  0
  3 14  2  0
  3 17  1  0
  4  6  1  0
  4 13  1  0
  5  8  1  0
  5 16  1  0
  6 17  1  0
  7 13  1  0
  8 15  1  0
 15  9  1  1
 10 16  2  0
 11 12  1  0
 12 15  1  0
M  END
