
     RDKit          3D

 25 29  0  0  0  0  0  0  0  0999 V2000
    0.7280    0.7491   -0.1925 C   0  0  0  0  0  0  0  0  0  0  0  0
    3.9152   -1.0084   -0.5036 C   0  0  0  0  0  0  0  0  0  0  0  0
   -1.9269    0.3162    0.3014 C   0  0  0  0  0  0  0  0  0  0  0  0
   -2.4679    2.6538    0.2037 C   0  0  0  0  0  0  0  0  0  0  0  0
   -1.8769   -2.0308    0.4935 C   0  0  2  0  0  0  0  0  0  0  0  0
    4.3398   -2.3824   -0.4278 C   0  0  0  0  0  0  0  0  0  0  0  0
    3.0881    1.7033   -0.6527 C   0  0  0  0  0  0  0  0  0  0  0  0
   -4.1917    0.9689    0.6804 C   0  0  0  0  0  0  0  0  0  0  0  0
    2.1728    0.6798   -0.4104 C   0  0  0  0  0  0  0  0  0  0  0  0
    1.3891   -1.4680   -0.0676 C   0  0  0  0  0  0  0  0  0  0  0  0
   -1.4997    1.6383    0.1115 C   0  0  0  0  0  0  0  0  0  0  0  0
    1.3584   -2.7161    0.0946 O   0  0  0  0  0  0  0  0  0  0  0  0
   -3.2123   -0.0240    0.5781 C   0  0  0  0  0  0  0  0  0  0  0  0
    4.4391    1.3601   -0.8242 C   0  0  0  0  0  0  0  0  0  0  0  0
    0.2567   -0.5502    0.0076 C   0  0  0  0  0  0  0  0  0  0  0  0
   -0.1300    1.8679   -0.1484 C   0  0  0  0  0  0  0  0  0  0  0  0
    4.8515    0.0138   -0.7505 C   0  0  0  0  0  0  0  0  0  0  0  0
   -3.3285   -1.5069    0.7568 C   0  0  0  0  0  0  0  0  0  0  0  0
   -4.2410   -2.0276   -0.1460 F   0  0  0  0  0  0  0  0  0  0  0  0
   -1.1007   -0.7699    0.2502 C   0  0  0  0  0  0  0  0  0  0  0  0
   -3.7272   -1.7985    2.0497 F   0  0  0  0  0  0  0  0  0  0  0  0
    4.6811   -3.4865   -0.3669 N   0  0  0  0  0  0  0  0  0  0  0  0
   -3.8121    2.3155    0.4872 C   0  0  0  0  0  0  0  0  0  0  0  0
    2.5731   -0.6471   -0.3368 C   0  0  0  0  0  0  0  0  0  0  0  0
   -1.8479   -2.8435   -0.6510 O   0  0  0  0  0  0  0  0  0  0  0  0
  1  9  1  0
  1 15  1  0
  1 16  2  0
  2  6  1  0
  2 17  1  0
  2 24  2  0
  3 11  1  0
  3 13  2  0
  3 20  1  0
  4 11  2  0
  4 23  1  0
  5 18  1  0
  5 20  1  0
  5 25  1  6
  6 22  3  0
  7  9  2  0
  7 14  1  0
  8 13  1  0
  8 23  2  0
  9 24  1  0
 10 12  2  0
 10 15  1  0
 10 24  1  0
 11 16  1  0
 13 18  1  0
 14 17  2  0
 15 20  2  0
 18 19  1  0
 18 21  1  0
M  END
