
     RDKit          3D

 12 12  0  0  0  0  0  0  0  0999 V2000
   -1.2535    0.6568    0.5397 C   0  0  1  0  0  0  0  0  0  0  0  0
   -1.9662   -0.7117    0.5765 C   0  0  0  0  0  0  0  0  0  0  0  0
    0.9032   -0.2060   -0.6230 C   0  0  0  0  0  0  0  0  0  0  0  0
    2.3895   -0.3119   -0.4662 C   0  0  0  0  0  0  0  0  0  0  0  0
    3.0674   -1.2710    0.1498 C   0  0  0  0  0  0  0  0  0  0  0  0
    4.4616   -0.9449    0.1862 N   0  0  0  0  0  0  0  0  0  0  0  0
   -3.4651   -0.5651    0.8348 C   0  0  0  0  0  0  0  0  0  0  0  0
    3.3994    0.6661   -0.8053 C   0  0  0  0  0  0  0  0  0  0  0  0
    0.2893    0.5203    0.5847 C   0  0  0  0  0  0  0  0  0  0  0  0
    3.2167    1.7712   -1.3796 O   0  0  0  0  0  0  0  0  0  0  0  0
   -1.7040    1.4469   -0.6114 N   0  0  0  0  0  0  0  0  0  0  0  0
    4.6578    0.1836   -0.3691 N   0  0  0  0  0  0  0  0  0  0  0  0
  1  2  1  0
  1  9  1  0
  1 11  1  6
  2  7  1  0
  3  4  1  0
  3  9  1  0
  4  5  2  0
  4  8  1  0
  5  6  1  0
  6 12  2  0
  8 10  2  0
  8 12  1  0
M  END
