
     RDKit          3D

 28 30  0  0  0  0  0  0  0  0999 V2000
  -15.1708   -0.2427  -25.4466 C   0  0  0  0  0  0  0  0  0  0  0  0
  -14.2454   -5.1027  -22.7180 C   0  0  0  0  0  0  0  0  0  0  0  0
  -13.0424   -6.8941  -23.3846 N   0  0  0  0  0  0  0  0  0  0  0  0
  -15.1240   -4.2514  -22.0910 N   0  0  0  0  0  0  0  0  0  0  0  0
  -12.5633   -6.1797  -24.4372 C   0  0  0  0  0  0  0  0  0  0  0  0
  -15.1615   -3.1109  -22.7545 C   0  0  0  0  0  0  0  0  0  0  0  0
  -14.5951   -0.0495  -26.7166 O   0  0  0  0  0  0  0  0  0  0  0  0
  -17.9172    2.7394  -22.7657 O   0  0  0  0  0  0  0  0  0  0  0  0
  -17.7005    0.4765  -21.5978 O   0  0  0  0  0  0  0  0  0  0  0  0
  -13.7533   -4.4618  -23.8279 C   0  0  0  0  0  0  0  0  0  0  0  0
  -14.3291   -3.2039  -23.8125 N   0  0  0  0  0  0  0  0  0  0  0  0
  -14.1327   -2.1726  -24.8207 C   0  0  0  0  0  0  0  0  0  0  0  0
  -13.4942   -1.1341  -24.1223 O   0  0  0  0  0  0  0  0  0  0  0  0
  -15.9376    2.3008  -21.2715 O   0  0  0  0  0  0  0  0  0  0  0  0
  -16.2472    3.0716  -19.9123 P   0  0  0  0  0  0  0  0  0  0  0  0
  -15.4767   -1.6829  -25.2409 C   0  0  0  0  0  0  0  0  0  0  0  0
  -11.6869   -6.8002  -25.2974 N   0  0  0  0  0  0  0  0  0  0  0  0
  -14.2895   -7.1295  -21.6160 O   0  0  0  0  0  0  0  0  0  0  0  0
  -12.9170   -4.9880  -24.6743 N   0  0  0  0  0  0  0  0  0  0  0  0
  -15.8740   -2.2138  -26.4872 O   0  0  0  0  0  0  0  0  0  0  0  0
  -15.4451    2.4807  -18.8591 O   0  0  0  0  0  0  0  0  0  0  0  0
  -17.0149    1.6343  -22.2695 P   0  0  0  0  0  0  0  0  0  0  0  0
  -17.7039    3.0071  -19.6423 O   0  0  0  0  0  0  0  0  0  0  0  0
  -13.8917   -6.4126  -22.5054 C   0  0  0  0  0  0  0  0  0  0  0  0
  -16.0805    1.1518  -23.4502 O   0  0  0  0  0  0  0  0  0  0  0  0
  -15.7740    4.4687  -20.1951 O   0  0  0  0  0  0  0  0  0  0  0  0
  -14.1772    0.0770  -24.4173 C   0  0  0  0  0  0  0  0  0  0  0  0
  -14.7900    0.6747  -23.1958 C   0  0  0  0  0  0  0  0  0  0  0  0
  1  7  1  0
  1 16  1  0
  1 27  1  0
  2  4  1  0
  2 10  2  0
  2 24  1  0
  3  5  2  0
  3 24  1  0
  4  6  2  0
  5 17  1  0
  5 19  1  0
  6 11  1  0
  8 22  2  0
  9 22  1  0
 10 11  1  0
 10 19  1  0
 11 12  1  0
 12 13  1  0
 12 16  1  0
 13 27  1  0
 14 15  1  0
 14 22  1  0
 15 21  2  0
 15 23  1  0
 15 26  1  0
 16 20  1  0
 18 24  2  0
 22 25  1  0
 25 28  1  0
 27 28  1  0
M  END
$$$$
