
     RDKit          3D

 17 17  0  0  0  0  0  0  0  0999 V2000
    3.7734   -1.5455    0.7028 O   0  0  0  0  0  0  0  0  0  0  0  0
    0.9213   -0.0738    0.3688 C   0  0  2  0  0  0  0  0  0  0  0  0
   -1.3154   -1.2572    0.7123 C   0  0  2  0  0  0  0  0  0  0  0  0
    0.5260    2.3748   -0.3635 C   0  0  0  0  0  0  0  0  0  0  0  0
    3.4849    0.0866    0.3605 P   0  0  0  0  0  0  0  0  0  0  0  0
   -3.9990    0.1185   -0.4088 N   0  0  0  0  0  0  0  0  0  0  0  0
    3.4573    0.3123   -1.3182 O   0  0  0  0  0  0  0  0  0  0  0  0
   -1.5733   -0.6114   -0.6752 C   0  0  1  0  0  0  0  0  0  0  0  0
   -3.0275   -0.7158   -1.0417 C   0  0  0  0  0  0  0  0  0  0  0  0
   -0.4593    0.3833    2.3201 O   0  0  0  0  0  0  0  0  0  0  0  0
   -3.3991   -1.5668   -1.8936 O   0  0  0  0  0  0  0  0  0  0  0  0
    4.5920    0.9228    0.9613 O   0  0  0  0  0  0  0  0  0  0  0  0
   -1.1989    0.7524   -0.6592 O   0  0  0  0  0  0  0  0  0  0  0  0
    1.9944    0.5545    1.0511 O   0  0  0  0  0  0  0  0  0  0  0  0
    0.2160    0.8987   -0.6412 C   0  0  2  0  0  0  0  0  0  0  0  0
   -0.0815   -0.6190    1.4049 C   0  0  2  0  0  0  0  0  0  0  0  0
   -1.0958   -2.6363    0.5547 O   0  0  0  0  0  0  0  0  0  0  0  0
  1  5  1  0
  2 14  1  1
  2 15  1  0
  2 16  1  0
  3  8  1  0
  3 16  1  0
  3 17  1  6
 15  4  1  1
  5  7  1  0
  5 12  2  0
  5 14  1  0
  6  9  1  0
  8  9  1  1
  8 13  1  0
  9 11  2  0
 16 10  1  1
 13 15  1  0
M  END
