
     RDKit          3D

 15 15  0  0  0  0  0  0  0  0999 V2000
   -2.6246    1.9420   -0.9545 O   0  0  0  0  0  0  0  0  0  0  0  0
    3.1117    1.1692    1.8515 O   0  0  0  0  0  0  0  0  0  0  0  0
    1.9041   -0.6538    0.1312 O   0  0  0  0  0  0  0  0  0  0  0  0
    3.1024    0.5542    0.2743 P   0  0  0  0  0  0  0  0  0  0  0  0
   -1.6285   -0.2361   -0.5211 C   0  0  2  0  0  0  0  0  0  0  0  0
    0.6251   -0.1107    0.4074 C   0  0  2  0  0  0  0  0  0  0  0  0
    2.8353    1.6744   -0.7064 O   0  0  0  0  0  0  0  0  0  0  0  0
   -0.1830   -1.1085    1.2605 C   0  0  2  0  0  0  0  0  0  0  0  0
   -1.5171   -1.3459    0.5344 C   0  0  2  0  0  0  0  0  0  0  0  0
    4.6139   -0.1280   -0.0605 O   0  0  0  0  0  0  0  0  0  0  0  0
    0.0089    1.3483   -1.4193 O   0  0  0  0  0  0  0  0  0  0  0  0
   -0.4257   -0.5783    2.5388 O   0  0  0  0  0  0  0  0  0  0  0  0
   -1.4847   -2.6014   -0.0971 O   0  0  0  0  0  0  0  0  0  0  0  0
   -0.1679    0.0602   -0.8895 C   0  0  2  0  0  0  0  0  0  0  0  0
   -2.3847    0.9899    0.0469 C   0  0  0  0  0  0  0  0  0  0  0  0
  1 15  1  0
  2  4  1  0
  3  4  1  0
  6  3  1  6
  4  7  2  0
  4 10  1  0
  5  9  1  0
  5 14  1  0
  5 15  1  1
  6  8  1  0
  6 14  1  0
  8  9  1  0
  8 12  1  1
  9 13  1  6
 14 11  1  1
M  END
