
     RDKit          3D

 16 16  0  0  0  0  0  0  0  0999 V2000
    0.5210   -0.0369   -0.1596 C   0  0  2  0  0  0  0  0  0  0  0  0
   -0.1449   -0.6777   -1.4012 C   0  0  2  0  0  0  0  0  0  0  0  0
   -2.1853   -0.1682    0.0572 C   0  0  1  0  0  0  0  0  0  0  0  0
    3.1208   -0.9438    1.4886 C   0  0  0  0  0  0  0  0  0  0  0  0
    0.3758   -0.0995   -2.5732 O   0  0  0  0  0  0  0  0  0  0  0  0
   -3.5732    0.0654    0.0858 O   0  0  0  0  0  0  0  0  0  0  0  0
   -2.6581    1.0577    2.7203 O   0  0  0  0  0  0  0  0  0  0  0  0
   -1.6917   -0.4859   -1.3756 C   0  0  2  0  0  0  0  0  0  0  0  0
   -2.4226   -1.7208   -1.9458 C   0  0  0  0  0  0  0  0  0  0  0  0
   -1.4086    1.0549    0.6429 C   0  0  1  0  0  0  0  0  0  0  0  0
   -1.3638    1.0311    2.1810 C   0  0  0  0  0  0  0  0  0  0  0  0
    2.6998    0.3952    0.8696 C   0  0  0  0  0  0  0  0  0  0  0  0
    3.9483    1.2525    0.6117 C   0  0  0  0  0  0  0  0  0  0  0  0
   -0.0911    1.2098    0.1239 O   0  0  0  0  0  0  0  0  0  0  0  0
    1.9643    0.1561   -0.3906 N   0  0  0  0  0  0  0  0  0  0  0  0
   -2.0337   -1.9690   -3.2698 O   0  0  0  0  0  0  0  0  0  0  0  0
  1  2  1  0
  1 14  1  0
  1 15  1  6
  2  5  1  6
  2  8  1  0
  3  6  1  6
  3  8  1  0
  3 10  1  0
  4 12  1  0
  7 11  1  0
  8  9  1  1
  9 16  1  0
 10 11  1  1
 10 14  1  0
 12 13  1  0
 12 15  1  0
M  END
