
     RDKit          3D

 19 20  0  0  0  0  0  0  0  0999 V2000
  -22.3958   13.1827   -2.9052 O   0  0  0  0  0  0  0  0  0  0  0  0
  -25.2559    8.8916   -2.9989 C   0  0  0  0  0  0  0  0  0  0  0  0
  -25.5047   16.0388   -2.2896 C   0  0  0  0  0  0  0  0  0  0  0  0
  -25.8119   12.4706   -0.0143 N   0  0  0  0  0  0  0  0  0  0  0  0
  -25.7328   11.2468   -3.1665 C   0  0  0  0  0  0  0  0  0  0  0  0
  -21.9519   10.8186   -0.3234 N   0  0  0  0  0  0  0  0  0  0  0  0
  -23.4401   15.0312   -2.0005 C   0  0  0  0  0  0  0  0  0  0  0  0
  -23.4971   13.7120   -2.2519 C   0  0  0  0  0  0  0  0  0  0  0  0
  -26.0024    9.9159   -3.4967 C   0  0  0  0  0  0  0  0  0  0  0  0
  -24.5418   12.9030   -1.8568 C   0  0  0  0  0  0  0  0  0  0  0  0
  -25.6871    7.2662   -3.3735 Cl  0  0  0  0  0  0  0  0  0  0  0  0
  -24.2083    9.1176   -2.1528 C   0  0  0  0  0  0  0  0  0  0  0  0
  -25.3102   13.4031   -0.7892 C   0  0  0  0  0  0  0  0  0  0  0  0
  -24.7056   15.4633   -1.3772 C   0  0  0  0  0  0  0  0  0  0  0  0
  -22.5475   15.8120   -2.3180 O   0  0  0  0  0  0  0  0  0  0  0  0
  -24.7018   11.4700   -2.3309 C   0  0  0  0  0  0  0  0  0  0  0  0
  -23.9699   10.4178   -1.8133 C   0  0  0  0  0  0  0  0  0  0  0  0
  -22.9137   10.6371   -1.0031 C   0  0  0  0  0  0  0  0  0  0  0  0
  -25.4160   14.6240   -0.5666 N   0  0  0  0  0  0  0  0  0  0  0  0
  1  8  1  0
  2  9  1  0
  2 11  1  0
  2 12  2  0
  3 14  1  0
  4 13  1  0
  5  9  2  0
  5 16  1  0
  6 18  3  0
  7  8  1  0
  7 14  1  0
  7 15  2  0
  8 10  2  0
 10 13  1  0
 10 16  1  0
 12 17  1  0
 13 19  2  0
 14 19  1  0
 16 17  2  0
 17 18  1  0
M  END
$$$$
