
     RDKit          3D

 24 26  0  0  0  0  0  0  0  0999 V2000
   18.4465   13.5467   -7.1362 C   0  0  0  0  0  0  0  0  0  0  0  0
   23.7362   10.1780  -16.1438 C   0  0  2  0  0  0  0  0  0  0  0  0
   25.0523   10.3972  -15.3697 C   0  0  0  0  0  0  0  0  0  0  0  0
   18.7968   11.3615  -10.2878 C   0  0  0  0  0  0  0  0  0  0  0  0
   20.7098   14.1937   -7.4423 O   0  0  0  0  0  0  0  0  0  0  0  0
   21.4460   11.9855   -8.9111 C   0  0  0  0  0  0  0  0  0  0  0  0
   23.9264   10.8060  -17.5801 C   0  0  0  0  0  0  0  0  0  0  0  0
   22.3970   10.0134  -13.1684 C   0  0  1  0  0  0  0  0  0  0  0  0
   21.7275    7.9183  -14.5161 C   0  0  0  0  0  0  0  0  0  0  0  0
   19.0855   11.2254   -8.7911 C   0  0  0  0  0  0  0  0  0  0  0  0
   21.5103   12.5929  -10.3133 C   0  0  0  0  0  0  0  0  0  0  0  0
   20.8520   12.5236  -12.7244 C   0  0  0  0  0  0  0  0  0  0  0  0
   21.6517    8.6718  -13.1810 C   0  0  0  0  0  0  0  0  0  0  0  0
   20.1133   12.1532   -8.3338 N   0  0  0  0  0  0  0  0  0  0  0  0
   19.8495   13.3359   -7.6463 C   0  0  0  0  0  0  0  0  0  0  0  0
   23.1391    7.7801  -15.0969 C   0  0  0  0  0  0  0  0  0  0  0  0
   21.9773   10.9070  -14.3105 C   0  0  0  0  0  0  0  0  0  0  0  0
   22.5635   10.9553  -15.5265 C   0  0  0  0  0  0  0  0  0  0  0  0
   25.0365   10.2355  -18.4589 C   0  0  0  0  0  0  0  0  0  0  0  0
   20.7531   11.7568  -14.0423 C   0  0  0  0  0  0  0  0  0  0  0  0
   23.4231    8.6614  -16.3245 C   0  0  0  0  0  0  0  0  0  0  0  0
   19.8985   10.7387  -11.1546 C   0  0  0  0  0  0  0  0  0  0  0  0
   21.1311   11.6313  -11.4845 C   0  0  2  0  0  0  0  0  0  0  0  0
   22.3673   10.7373  -11.8029 C   0  0  0  0  0  0  0  0  0  0  0  0
  1 15  1  0
  2  3  1  1
  2  7  1  0
  2 18  1  0
  2 21  1  0
  4 10  1  0
  4 22  1  0
  5 15  2  0
  6 11  1  0
  6 14  1  0
  7 19  1  0
  8 13  1  1
  8 17  1  0
  8 24  1  0
  9 13  1  0
  9 16  1  0
 10 14  1  0
 23 11  1  1
 12 20  1  0
 12 23  1  0
 14 15  1  0
 16 21  1  0
 17 18  2  3
 17 20  1  0
 22 23  1  0
 23 24  1  0
M  END
$$$$
