
     RDKit          3D

 24 29  0  0  0  0  0  0  0  0999 V2000
   26.4662    9.2864  -15.7216 C   0  0  0  0  0  0  0  0  0  0  0  0
   24.2410    9.2319  -14.0928 C   0  0  0  0  0  0  0  0  0  0  0  0
   21.9874   10.8687   -7.4817 O   0  0  0  0  0  0  0  0  0  0  0  0
   22.9787    8.8782  -11.8386 C   0  0  0  0  0  0  0  0  0  0  0  0
   24.2873   12.6856  -11.7591 C   0  0  0  0  0  0  0  0  0  0  0  0
   26.6517    8.3116  -16.6425 C   0  0  0  0  0  0  0  0  0  0  0  0
   20.5239   10.1582  -10.0793 C   0  0  0  0  0  0  0  0  0  0  0  0
   23.2087    7.9101  -12.6743 C   0  0  0  0  0  0  0  0  0  0  0  0
   22.8833   12.3769  -11.4943 C   0  0  0  0  0  0  0  0  0  0  0  0
   24.7665    7.2678  -15.6168 S   0  0  0  0  0  0  0  0  0  0  0  0
   22.6062   12.5536   -9.0157 C   0  0  0  0  0  0  0  0  0  0  0  0
   23.1302   10.0424  -12.2754 C   0  0  0  0  0  0  0  0  0  0  0  0
   23.6327   10.2453  -13.4424 C   0  0  0  0  0  0  0  0  0  0  0  0
   22.1948   11.0392  -11.5798 C   0  0  0  0  0  0  0  0  0  0  0  0
   27.6384    8.4395  -17.5199 O   0  0  0  0  0  0  0  0  0  0  0  0
   23.1186   12.5418   -6.7671 O   0  0  0  0  0  0  0  0  0  0  0  0
   25.8438    7.1688  -16.6861 C   0  0  0  0  0  0  0  0  0  0  0  0
   23.2987    9.7582  -10.7329 C   0  0  0  0  0  0  0  0  0  0  0  0
   25.3804    9.0733  -14.9322 C   0  0  0  0  0  0  0  0  0  0  0  0
   21.6715   11.0483  -10.5880 C   0  0  0  0  0  0  0  0  0  0  0  0
   20.0917   10.9455  -10.9792 C   0  0  0  0  0  0  0  0  0  0  0  0
   23.9303    8.0800  -13.7322 C   0  0  0  0  0  0  0  0  0  0  0  0
   22.5564   12.0031   -7.7062 C   0  0  0  0  0  0  0  0  0  0  0  0
   22.3476   12.0330  -10.2327 C   0  0  0  0  0  0  0  0  0  0  0  0
  1  6  4  0
  1 19  4  0
  2 13  4  0
  2 19  1  0
  2 22  4  0
  3 23  1  0
  4  8  4  0
  4 12  4  0
  4 18  1  0
  5  9  1  0
  6 15  1  0
  6 17  4  0
  7 20  1  0
  7 21  1  0
  8 22  4  0
  9 14  1  0
  9 24  1  0
 10 17  4  0
 10 19  4  0
 11 23  1  0
 11 24  2  3
 12 13  4  0
 12 14  1  0
 12 18  1  0
 14 18  1  0
 14 20  1  0
 16 23  2  0
 20 21  1  0
 20 24  1  0
M  END
$$$$
