
     RDKit          3D

 18 21  0  0  0  0  0  0  0  0999 V2000
   28.1686   34.8440  103.3519 C   0  0  0  0  0  0  0  0  0  0  0  0
   24.8333   33.4922  103.8041 C   0  0  0  0  0  0  0  0  0  0  0  0
   23.4131   36.5390  104.6320 C   0  0  0  0  0  0  0  0  0  0  0  0
   32.1822   34.7845  103.9247 C   0  0  0  0  0  0  0  0  0  0  0  0
   31.3403   35.2204  104.7801 C   0  0  0  0  0  0  0  0  0  0  0  0
   29.9920   35.0761  104.5587 C   0  0  0  0  0  0  0  0  0  0  0  0
   24.2410   35.5498  104.9274 N   0  0  0  0  0  0  0  0  0  0  0  0
   32.6301   33.7989  101.8857 N   0  0  0  0  0  0  0  0  0  0  0  0
   24.6215   34.8076  103.7742 C   0  0  0  0  0  0  0  0  0  0  0  0
   31.7026   34.2457  102.7242 C   0  0  0  0  0  0  0  0  0  0  0  0
   27.1410   34.0963  103.7654 C   0  0  0  0  0  0  0  0  0  0  0  0
   27.6908   35.9076  102.8035 O   0  0  0  0  0  0  0  0  0  0  0  0
   23.0519   36.6917  103.3847 C   0  0  0  0  0  0  0  0  0  0  0  0
   25.8209   34.6267  103.5008 C   0  0  0  0  0  0  0  0  0  0  0  0
   26.3172   35.8251  102.7606 N   0  0  0  0  0  0  0  0  0  0  0  0
   23.6651   35.5307  102.4808 S   0  0  0  0  0  0  0  0  0  0  0  0
   29.5197   34.5749  103.3655 C   0  0  0  0  0  0  0  0  0  0  0  0
   30.3925   34.1682  102.4462 N   0  0  0  0  0  0  0  0  0  0  0  0
  1 11  4  0
  1 12  4  0
  1 17  1  0
  2  9  1  0
  2 14  1  0
  3  7  4  0
  3 13  4  0
  4  5  4  0
  4 10  4  0
  5  6  4  0
  6 17  4  0
  7  9  4  0
  8 10  1  0
  9 14  1  0
  9 16  4  0
 10 18  4  0
 11 14  4  0
 12 15  4  0
 13 16  4  0
 14 15  4  0
 17 18  4  0
M  END
$$$$
