
     RDKit          3D

 19 20  0  0  0  0  0  0  0  0999 V2000
  -36.4177   25.0135  -20.6489 C   0  0  0  0  0  0  0  0  0  0  0  0
  -36.7117   25.9743  -21.4605 C   0  0  0  0  0  0  0  0  0  0  0  0
  -36.2669   28.9511  -19.2263 C   0  0  0  0  0  0  0  0  0  0  0  0
  -34.9288   29.3906  -18.8054 C   0  0  0  0  0  0  0  0  0  0  0  0
  -35.3621   31.3164  -17.6590 O   0  0  0  0  0  0  0  0  0  0  0  0
  -35.8389   32.1245  -21.0206 C   0  0  0  0  0  0  0  0  0  0  0  0
  -35.0480   30.9198  -18.9177 C   0  0  0  0  0  0  0  0  0  0  0  0
  -37.1249   35.6866  -20.3830 C   0  0  0  0  0  0  0  0  0  0  0  0
  -36.4613   23.7103  -21.1978 F   0  0  0  0  0  0  0  0  0  0  0  0
  -36.6594   27.3472  -20.8990 C   0  0  0  0  0  0  0  0  0  0  0  0
  -36.3559   27.5663  -19.6611 N   0  0  0  0  0  0  0  0  0  0  0  0
  -34.5573   28.9345  -17.4970 O   0  0  0  0  0  0  0  0  0  0  0  0
  -36.6110   29.8616  -20.2693 O   0  0  0  0  0  0  0  0  0  0  0  0
  -37.9677   36.8466  -20.1675 C   0  0  0  0  0  0  0  0  0  0  0  0
  -36.4071   34.7803  -20.4942 C   0  0  0  0  0  0  0  0  0  0  0  0
  -35.4625   33.6595  -20.7023 C   0  0  0  0  0  0  0  0  0  0  0  0
  -36.2453   31.2148  -19.8547 C   0  0  0  0  0  0  0  0  0  0  0  0
  -36.0711   25.2158  -19.3300 C   0  0  0  0  0  0  0  0  0  0  0  0
  -36.0401   26.4852  -18.8697 C   0  0  0  0  0  0  0  0  0  0  0  0
  1  2  4  0
  1  9  1  0
  1 18  4  0
  2 10  4  0
  3  4  1  0
  3 11  1  0
  3 13  1  0
  4  7  1  0
  4 12  1  0
  5  7  1  0
  6 16  1  0
  6 17  1  0
  7 17  1  0
  8 14  1  0
  8 15  3  0
 10 11  4  0
 11 19  4  0
 13 17  1  0
 15 16  1  0
 18 19  4  0
M  END
$$$$
