
     RDKit          3D

 19 20  0  0  0  0  0  0  0  0999 V2000
  -36.8356   26.0604  -21.4477 C   0  0  0  0  0  0  0  0  0  0  0  0
  -37.3554   36.4480  -20.4683 C   0  0  0  0  0  0  0  0  0  0  0  0
  -37.2992   26.6231  -18.7268 C   0  0  0  0  0  0  0  0  0  0  0  0
  -37.5545   25.3359  -19.2514 C   0  0  0  0  0  0  0  0  0  0  0  0
  -38.1477   29.7576  -20.5036 O   0  0  0  0  0  0  0  0  0  0  0  0
  -38.3209   37.1744  -20.5630 N   0  0  0  0  0  0  0  0  0  0  0  0
  -35.9888   34.7318  -21.3539 C   0  0  0  0  0  0  0  0  0  0  0  0
  -37.0919   30.0408  -19.6040 C   0  0  0  0  0  0  0  0  0  0  0  0
  -35.1414   29.0499  -18.7998 C   0  0  0  0  0  0  0  0  0  0  0  0
  -36.8134   27.6071  -19.5762 C   0  0  0  0  0  0  0  0  0  0  0  0
  -36.5843   27.3352  -20.9544 C   0  0  0  0  0  0  0  0  0  0  0  0
  -35.8496   32.1724  -20.3146 C   0  0  0  0  0  0  0  0  0  0  0  0
  -34.7838   31.1411  -17.9068 O   0  0  0  0  0  0  0  0  0  0  0  0
  -36.3026   35.7910  -20.4180 N   0  0  0  0  0  0  0  0  0  0  0  0
  -35.7875   30.6923  -20.1723 C   0  0  0  0  0  0  0  0  0  0  0  0
  -37.3230   25.0356  -20.6281 C   0  0  0  0  0  0  0  0  0  0  0  0
  -35.9091   33.3973  -20.6103 C   0  0  0  0  0  0  0  0  0  0  0  0
  -34.7268   30.4104  -19.1202 C   0  0  0  0  0  0  0  0  0  0  0  0
  -36.5508   28.8443  -19.0569 N   0  0  0  0  0  0  0  0  0  0  0  0
  1 11  1  0
  1 16  2  0
  2  6  3  0
  2 14  1  0
  3  4  2  0
  3 10  1  0
  4 16  1  0
  5  8  1  0
  7 14  1  0
  7 17  1  0
  8 15  1  0
  8 19  1  0
  9 18  1  0
  9 19  1  0
 10 11  2  0
 10 19  1  0
 12 15  1  0
 12 17  3  0
 13 18  1  0
 15 18  1  0
M  END
$$$$
