
     RDKit          3D

 13 12  0  0  0  0  0  0  0  0999 V2000
   34.4348   52.7586   32.6671 N   0  0  0  0  0  0  0  0  0  0  0  0
   35.1755   58.9915   33.3627 C   0  0  0  0  0  0  0  0  0  0  0  0
   32.3044   59.7310   35.3267 N   0  0  0  0  0  0  0  0  0  0  0  0
   36.5583   53.5594   33.6998 C   0  0  0  0  0  0  0  0  0  0  0  0
   33.3359   59.0026   34.7385 C   0  0  0  0  0  0  0  0  0  0  0  0
   38.3146   51.8886   32.6815 N   0  0  0  0  0  0  0  0  0  0  0  0
   35.3590   57.6263   33.5109 C   0  0  0  0  0  0  0  0  0  0  0  0
   33.4352   57.6317   34.9391 C   0  0  0  0  0  0  0  0  0  0  0  0
   35.1832   52.9236   33.9122 C   0  0  0  0  0  0  0  0  0  0  0  0
   34.4747   56.9250   34.3281 C   0  0  0  0  0  0  0  0  0  0  0  0
   34.5913   55.4408   34.4926 C   0  0  0  0  0  0  0  0  0  0  0  0
   34.1859   59.6908   33.9603 N   0  0  0  0  0  0  0  0  0  0  0  0
   37.5206   52.6161   33.1152 C   0  0  0  0  0  0  0  0  0  0  0  0
  1  9  1  0
  2  7  2  0
  2 12  1  0
  3  5  1  0
  4  9  1  0
  4 13  1  0
  5  8  1  0
  5 12  2  0
  6 13  3  0
  7 10  1  0
  8 10  2  0
 10 11  1  0
M  END
$$$$
