
     RDKit          3D

 29 32  0  0  0  0  0  0  0  0999 V2000
   33.1311   28.8160    0.3476 C   0  0  0  0  0  0  0  0  0  0  0  0
   32.4781   31.2265   -0.9785 N   0  0  0  0  0  0  0  0  0  0  0  0
   31.8028   30.4888   -7.6680 C   0  0  0  0  0  0  0  0  0  0  0  0
   32.1291   30.1810   -5.4927 C   0  0  0  0  0  0  0  0  0  0  0  0
   33.6521   24.0212   -0.2827 C   0  0  0  0  0  0  0  0  0  0  0  0
   31.7710   31.0945   -6.4979 C   0  0  0  0  0  0  0  0  0  0  0  0
   32.2165   30.6961   -4.1707 C   0  0  0  0  0  0  0  0  0  0  0  0
   31.8834   29.8419   -8.5961 N   0  0  0  0  0  0  0  0  0  0  0  0
   32.5747   29.7523   -3.0670 C   0  0  0  0  0  0  0  0  0  0  0  0
   33.2273   29.9220    2.5173 C   0  0  0  0  0  0  0  0  0  0  0  0
   32.9804   28.8507   -1.0293 N   0  0  0  0  0  0  0  0  0  0  0  0
   32.4203   24.5057   -0.6542 C   0  0  0  0  0  0  0  0  0  0  0  0
   34.6532   26.0385   -1.1247 C   0  0  0  0  0  0  0  0  0  0  0  0
   35.1287   20.9993    1.4513 C   0  0  0  0  0  0  0  0  0  0  0  0
   33.7366   22.7369    0.3406 O   0  0  0  0  0  0  0  0  0  0  0  0
   34.7697   24.7987   -0.5297 C   0  0  0  0  0  0  0  0  0  0  0  0
   34.0161   28.6984    2.8384 C   0  0  0  0  0  0  0  0  0  0  0  0
   32.6721   30.0617   -1.6390 C   0  0  0  0  0  0  0  0  0  0  0  0
   31.5511   32.4742   -6.2657 C   0  0  0  0  0  0  0  0  0  0  0  0
   34.9037   22.0959    0.7761 C   0  0  0  0  0  0  0  0  0  0  0  0
   32.2887   25.7376   -1.2433 C   0  0  0  0  0  0  0  0  0  0  0  0
   32.9507   29.9420    1.1118 C   0  0  0  0  0  0  0  0  0  0  0  0
   31.6449   32.9534   -4.9137 C   0  0  0  0  0  0  0  0  0  0  0  0
   33.1205   27.8707   -2.0609 C   0  0  0  0  0  0  0  0  0  0  0  0
   35.5094   29.0567    3.0394 C   0  0  0  0  0  0  0  0  0  0  0  0
   32.6388   31.1576    0.4234 C   0  0  0  0  0  0  0  0  0  0  0  0
   32.0029   32.0588   -3.8748 C   0  0  0  0  0  0  0  0  0  0  0  0
   33.4092   26.4726   -1.5341 C   0  0  0  0  0  0  0  0  0  0  0  0
   32.8425   28.3445   -3.2507 C   0  0  0  0  0  0  0  0  0  0  0  0
  1 11  1  0
  1 22  2  0
  2 18  1  0
  2 26  2  0
  3  6  1  0
  3  8  3  0
  4  6  2  0
  4  7  1  0
  5 12  1  0
  5 15  1  0
  5 16  2  0
  6 19  1  0
  7  9  1  0
  7 27  2  0
  9 18  2  0
  9 29  1  0
 10 17  1  0
 10 22  1  0
 11 18  1  0
 11 24  1  0
 12 21  2  0
 13 16  1  0
 13 28  2  0
 14 20  2  0
 15 20  1  0
 17 25  1  0
 19 23  2  0
 21 28  1  0
 22 26  1  0
 23 27  1  0
 24 28  1  0
 24 29  2  0
M  END
$$$$
