
     RDKit          3D

 42 48  0  0  0  0  0  0  0  0999 V2000
   35.7772   22.5495    3.4751 C   0  0  0  0  0  0  0  0  0  0  0  0
   32.4545   31.0557    0.9110 O   0  0  0  0  0  0  0  0  0  0  0  0
   32.9884   29.9328   -5.0673 C   0  0  0  0  0  0  0  0  0  0  0  0
   31.7612   32.3299   -8.0542 C   0  0  0  0  0  0  0  0  0  0  0  0
   31.6883   30.0238   -7.4633 C   0  0  0  0  0  0  0  0  0  0  0  0
   30.7950   29.8957   -4.2697 O   0  0  0  0  0  0  0  0  0  0  0  0
   31.9666   30.7106   -4.4246 C   0  0  0  0  0  0  0  0  0  0  0  0
   33.3301   31.4146   -1.1668 C   0  0  0  0  0  0  0  0  0  0  0  0
   33.1446   29.8263    1.1456 C   0  0  0  0  0  0  0  0  0  0  0  0
   32.0126   27.2786   -2.5952 N   0  0  0  0  0  0  0  0  0  0  0  0
   33.4837   25.9601   -1.0559 C   0  0  0  0  0  0  0  0  0  0  0  0
   34.1174   26.6785   -0.4851 N   0  0  0  0  0  0  0  0  0  0  0  0
   33.2227   28.6156   -4.3723 C   0  0  0  0  0  0  0  0  0  0  0  0
   33.4984   28.9036    0.2211 C   0  0  0  0  0  0  0  0  0  0  0  0
   31.8129   31.7421   -5.4860 C   0  0  0  0  0  0  0  0  0  0  0  0
   33.2389   31.5139   -2.5791 C   0  0  0  0  0  0  0  0  0  0  0  0
   32.9142   29.6758   -6.5452 C   0  0  0  0  0  0  0  0  0  0  0  0
   30.8236   31.4739   -2.3512 C   0  0  0  0  0  0  0  0  0  0  0  0
   29.6617   31.4951   -6.9600 C   0  0  0  0  0  0  0  0  0  0  0  0
   30.8274   28.1786   -3.0127 C   0  0  0  0  0  0  0  0  0  0  0  0
   35.2750   22.1012    1.0434 C   0  0  0  0  0  0  0  0  0  0  0  0
   34.3909   23.7797   -0.5334 C   0  0  0  0  0  0  0  0  0  0  0  0
   32.0150   31.5373   -3.2246 C   0  0  0  0  0  0  0  0  0  0  0  0
   33.4922   29.5082    2.4152 C   0  0  0  0  0  0  0  0  0  0  0  0
   34.4208   23.1701    0.6952 N   0  0  0  0  0  0  0  0  0  0  0  0
   34.4633   27.5143    1.7368 C   0  0  0  0  0  0  0  0  0  0  0  0
   30.8733   31.3945   -0.9528 C   0  0  0  0  0  0  0  0  0  0  0  0
   32.1971   32.7852   -5.2615 O   0  0  0  0  0  0  0  0  0  0  0  0
   33.0111   28.2413   -2.9368 C   0  0  0  0  0  0  0  0  0  0  0  0
   33.9793   21.0703    2.8816 C   0  0  0  0  0  0  0  0  0  0  0  0
   35.1848   23.5682   -1.3201 O   0  0  0  0  0  0  0  0  0  0  0  0
   31.1473   31.3921   -6.9339 C   0  0  0  0  0  0  0  0  0  0  0  0
   33.3239   24.8202   -0.2275 C   0  0  0  0  0  0  0  0  0  0  0  0
   34.0800   27.7790    0.4576 C   0  0  0  0  0  0  0  0  0  0  0  0
   32.3421   26.3971   -1.7763 C   0  0  0  0  0  0  0  0  0  0  0  0
   35.2476   21.7852    2.4466 C   0  0  0  0  0  0  0  0  0  0  0  0
   31.4233   25.4974   -1.6811 N   0  0  0  0  0  0  0  0  0  0  0  0
   34.2280   28.3945    2.7206 C   0  0  0  0  0  0  0  0  0  0  0  0
   33.1445   24.5839   -0.6205 C   0  0  0  0  0  0  0  0  0  0  0  0
   31.9343   24.5109   -0.9425 C   0  0  0  0  0  0  0  0  0  0  0  0
   32.1712   31.3506   -0.4268 C   0  0  0  0  0  0  0  0  0  0  0  0
   35.2233   20.3073    2.8438 C   0  0  0  0  0  0  0  0  0  0  0  0
  1 36  1  0
  2  9  1  0
  2 41  1  0
  3  7  1  0
  3 13  1  0
  3 17  1  0
  4 32  1  0
  5 17  1  0
  5 32  1  0
  6  7  1  0
  7 15  1  0
  7 23  1  0
  8 16  4  0
  8 41  4  0
  9 14  4  0
  9 24  4  0
 10 20  1  0
 10 29  1  0
 10 35  1  0
 11 12  1  0
 11 33  4  0
 11 35  4  0
 11 39  4  0
 12 34  1  0
 13 29  1  0
 14 34  4  0
 15 28  2  0
 15 32  1  0
 16 23  4  0
 18 23  4  0
 18 27  4  0
 19 32  1  0
 21 25  1  0
 21 36  1  0
 22 25  1  0
 22 31  2  0
 22 33  1  0
 22 39  1  0
 24 38  4  0
 26 34  4  0
 26 38  4  0
 27 41  4  0
 30 36  1  0
 30 42  1  0
 35 37  4  0
 36 42  1  0
 37 40  4  0
 39 40  4  0
M  END
$$$$
