
     RDKit          3D

 27 31  0  0  0  0  0  0  0  0999 V2000
   32.4577   30.2061   -4.8432 C   0  0  0  0  0  0  0  0  0  0  0  0
   33.1205   27.8726   -1.5976 C   0  0  0  0  0  0  0  0  0  0  0  0
   31.9885   32.5808   -4.0987 C   0  0  0  0  0  0  0  0  0  0  0  0
   33.5534   29.4458    3.0227 F   0  0  0  0  0  0  0  0  0  0  0  0
   32.1829   31.6133   -5.1363 C   0  0  0  0  0  0  0  0  0  0  0  0
   32.4555   30.7469   -2.4263 C   0  0  0  0  0  0  0  0  0  0  0  0
   32.9519   31.0530    1.3483 C   0  0  0  0  0  0  0  0  0  0  0  0
   33.2917   29.6929    1.7383 C   0  0  0  0  0  0  0  0  0  0  0  0
   32.2435   25.5625   -0.6196 C   0  0  0  0  0  0  0  0  0  0  0  0
   34.0226   22.2140    0.0867 O   0  0  0  0  0  0  0  0  0  0  0  0
   32.6860   31.4055   -0.0367 C   0  0  0  0  0  0  0  0  0  0  0  0
   32.6715   30.4218   -1.0375 C   0  0  0  0  0  0  0  0  0  0  0  0
   32.6175   29.7760   -3.4633 C   0  0  0  0  0  0  0  0  0  0  0  0
   34.7023   25.7994   -0.9226 C   0  0  0  0  0  0  0  0  0  0  0  0
   32.0192   32.0330   -6.4331 N   0  0  0  0  0  0  0  0  0  0  0  0
   33.2778   28.6833    0.7620 C   0  0  0  0  0  0  0  0  0  0  0  0
   32.9949   28.9818   -0.5859 C   0  0  0  0  0  0  0  0  0  0  0  0
   33.7923   23.6250   -0.2105 C   0  0  0  0  0  0  0  0  0  0  0  0
   33.3539   26.4104   -1.0236 C   0  0  0  0  0  0  0  0  0  0  0  0
   32.9321   28.2742   -3.0720 C   0  0  0  0  0  0  0  0  0  0  0  0
   32.1582   31.1220   -7.4827 C   0  0  0  0  0  0  0  0  0  0  0  0
   34.8943   24.4747   -0.4965 C   0  0  0  0  0  0  0  0  0  0  0  0
   32.1183   32.1547   -2.7889 C   0  0  0  0  0  0  0  0  0  0  0  0
   32.4874   24.2172   -0.2105 C   0  0  0  0  0  0  0  0  0  0  0  0
   32.5700   29.3248   -5.9502 C   0  0  0  0  0  0  0  0  0  0  0  0
   32.4433   29.7470   -7.2589 C   0  0  0  0  0  0  0  0  0  0  0  0
   34.7379   21.7603    1.3354 C   0  0  0  0  0  0  0  0  0  0  0  0
  1  5  1  0
  1 13  1  0
  1 25  2  0
  2 17  1  0
  2 19  1  0
  2 20  1  0
  3  5  1  0
  3 23  2  0
  4  8  1  0
  5 15  2  0
  6 12  1  0
  6 13  2  0
  6 23  1  0
  7  8  2  0
  7 11  1  0
  8 16  1  0
  9 19  2  0
  9 24  1  0
 10 18  1  0
 10 27  1  0
 11 12  2  0
 12 17  1  0
 13 20  1  0
 14 19  1  0
 14 22  2  0
 15 21  1  0
 16 17  2  0
 18 22  1  0
 18 24  2  0
 21 26  2  0
 25 26  1  0
M  END
$$$$
