
     RDKit          3D

 26 30  0  0  0  0  0  0  0  0999 V2000
  -24.9291   25.6805   -1.6545 C   0  0  0  0  0  0  0  0  0  0  0  0
  -12.3239   25.8891   -4.5663 C   0  0  0  0  0  0  0  0  0  0  0  0
  -20.0352   25.4790   -1.9336 O   0  0  0  0  0  0  0  0  0  0  0  0
  -22.4226   25.1022   -5.7488 N   0  0  0  0  0  0  0  0  0  0  0  0
  -16.6017   25.3806   -3.1096 C   0  0  0  0  0  0  0  0  0  0  0  0
  -22.6960   25.1856   -4.4341 C   0  0  0  0  0  0  0  0  0  0  0  0
  -15.9550   25.7797   -4.1890 C   0  0  0  0  0  0  0  0  0  0  0  0
  -14.6913   26.2193   -4.1054 C   0  0  0  0  0  0  0  0  0  0  0  0
  -21.4988   25.2518   -2.5888 C   0  0  0  0  0  0  0  0  0  0  0  0
  -19.6180   24.2485   -4.1542 C   0  0  0  0  0  0  0  0  0  0  0  0
  -14.3653   27.3737   -3.5905 C   0  0  0  0  0  0  0  0  0  0  0  0
  -18.3111   24.7961   -4.3236 C   0  0  0  0  0  0  0  0  0  0  0  0
  -17.6855   24.9401   -3.1477 N   0  0  0  0  0  0  0  0  0  0  0  0
  -13.0699   27.8420   -3.5405 N   0  0  0  0  0  0  0  0  0  0  0  0
  -23.8493   25.3500   -3.8068 C   0  0  0  0  0  0  0  0  0  0  0  0
  -12.0643   27.0953   -4.0585 C   0  0  0  0  0  0  0  0  0  0  0  0
  -20.2334   24.8356   -2.1859 N   0  0  0  0  0  0  0  0  0  0  0  0
  -17.8012   25.1390   -5.5088 C   0  0  0  0  0  0  0  0  0  0  0  0
  -13.6376   25.5049   -4.5702 C   0  0  0  0  0  0  0  0  0  0  0  0
  -19.4952   23.1467   -3.0910 O   0  0  0  0  0  0  0  0  0  0  0  0
  -23.8197   25.4937   -2.4265 C   0  0  0  0  0  0  0  0  0  0  0  0
  -21.5481   25.1941   -3.7814 C   0  0  0  0  0  0  0  0  0  0  0  0
  -16.5571   25.6298   -5.3856 C   0  0  0  0  0  0  0  0  0  0  0  0
  -22.5795   25.4335   -1.7759 C   0  0  0  0  0  0  0  0  0  0  0  0
  -21.0298   24.9401   -5.7929 C   0  0  0  0  0  0  0  0  0  0  0  0
  -20.6115   24.8321   -4.6061 N   0  0  0  0  0  0  0  0  0  0  0  0
  1 21  1  0
  2 16  4  0
  2 19  4  0
  3  9  1  0
  3 17  1  0
  4  6  4  0
  4 25  4  0
  5  7  4  0
  5 13  4  0
  6 15  4  0
  6 22  4  0
  7  8  1  0
  7 23  4  0
  8 11  4  0
  8 19  4  0
  9 17  1  0
  9 22  4  0
  9 24  4  0
 10 12  1  0
 10 20  2  0
 10 26  1  0
 11 14  4  0
 12 13  4  0
 12 18  4  0
 14 16  4  0
 15 21  4  0
 18 23  4  0
 21 24  4  0
 22 26  4  0
 25 26  4  0
M  END
$$$$
