
     RDKit          3D

 33 41  0  0  0  0  0  0  0  0999 V2000
  -15.0030   25.9107   -2.0329 C   0  0  0  0  0  0  0  0  0  0  0  0
  -12.6361   25.9248   -2.4959 C   0  0  0  0  0  0  0  0  0  0  0  0
  -16.7011   25.1353   -6.4288 C   0  0  0  0  0  0  0  0  0  0  0  0
  -24.6596   25.2187   -1.8854 F   0  0  0  0  0  0  0  0  0  0  0  0
  -22.7902   26.3954   -2.6736 F   0  0  0  0  0  0  0  0  0  0  0  0
  -23.4993   24.1224   -6.5487 C   0  0  0  0  0  0  0  0  0  0  0  0
  -15.4906   25.2502   -5.9380 C   0  0  0  0  0  0  0  0  0  0  0  0
  -21.5868   25.7425   -6.0337 C   0  0  0  0  0  0  0  0  0  0  0  0
  -20.1152   26.5482   -5.7499 O   0  0  0  0  0  0  0  0  0  0  0  0
  -19.7111   26.0323   -5.8113 C   0  0  0  0  0  0  0  0  0  0  0  0
  -11.9786   25.7157   -3.6368 C   0  0  0  0  0  0  0  0  0  0  0  0
  -20.3024   24.9804   -4.2119 C   0  0  0  0  0  0  0  0  0  0  0  0
  -18.9701   24.9941   -6.2888 O   0  0  0  0  0  0  0  0  0  0  0  0
  -16.2772   25.7257   -2.5077 C   0  0  0  0  0  0  0  0  0  0  0  0
  -17.8799   25.1317   -5.6325 C   0  0  0  0  0  0  0  0  0  0  0  0
  -20.7539   24.5237   -2.0183 O   0  0  0  0  0  0  0  0  0  0  0  0
  -16.4667   25.4973   -3.7937 C   0  0  0  0  0  0  0  0  0  0  0  0
  -23.3440   25.2939   -2.1036 C   0  0  0  0  0  0  0  0  0  0  0  0
  -23.7039   24.2953   -5.1566 N   0  0  0  0  0  0  0  0  0  0  0  0
  -22.8974   25.3940   -0.7144 C   0  0  0  0  0  0  0  0  0  0  0  0
  -18.4747   24.5547   -2.6485 O   0  0  0  0  0  0  0  0  0  0  0  0
  -19.1089   24.8815   -3.6551 C   0  0  0  0  0  0  0  0  0  0  0  0
  -22.8937   24.0597   -2.8669 C   0  0  0  0  0  0  0  0  0  0  0  0
  -21.4300   24.5704   -2.9413 C   0  0  0  0  0  0  0  0  0  0  0  0
  -13.9158   25.8300   -2.8219 N   0  0  0  0  0  0  0  0  0  0  0  0
  -21.4417   24.7812   -4.9484 C   0  0  0  0  0  0  0  0  0  0  0  0
  -17.7246   25.2104   -4.3519 C   0  0  0  0  0  0  0  0  0  0  0  0
  -22.5703   25.2970   -7.1030 C   0  0  0  0  0  0  0  0  0  0  0  0
  -14.1243   25.5645   -4.1539 C   0  0  0  0  0  0  0  0  0  0  0  0
  -15.3213   25.4680   -4.5714 C   0  0  0  0  0  0  0  0  0  0  0  0
  -20.6607   24.8258   -3.4034 C   0  0  0  0  0  0  0  0  0  0  0  0
  -12.9052   25.5059   -4.6986 N   0  0  0  0  0  0  0  0  0  0  0  0
  -22.6460   24.4068   -4.2781 C   0  0  0  0  0  0  0  0  0  0  0  0
  1 14  2  0
  1 25  1  0
  2 11  2  0
  2 25  1  0
  3  7  1  0
  3 15  2  0
  4 18  1  0
  5 18  1  0
  6 19  1  0
  6 28  1  0
  7 30  2  0
  8  9  1  0
  8 26  1  0
  8 28  1  0
  9 10  1  0
 10 12  1  0
 10 13  1  0
 11 32  1  0
 12 22  1  0
 12 26  2  0
 12 31  1  0
 13 15  1  0
 14 17  1  0
 15 27  1  0
 16 24  1  0
 16 31  1  0
 17 27  2  0
 17 30  1  0
 18 20  1  0
 18 23  1  0
 19 33  2  0
 21 22  2  0
 22 27  1  0
 22 31  1  0
 23 24  1  0
 23 33  1  0
 24 31  1  0
 25 29  1  0
 26 33  1  0
 29 30  1  0
 29 32  2  0
M  END
$$$$
