
     RDKit          3D

  7  7  0  0  0  0  0  0  0  0999 V2000
  -21.3860   25.1452   -4.7271 C   0  0  0  0  0  0  0  0  0  0  0  0
  -23.5394   24.3839   -5.1146 C   0  0  0  0  0  0  0  0  0  0  0  0
  -23.9325   24.7767   -3.8715 C   0  0  0  0  0  0  0  0  0  0  0  0
  -23.0662   25.3626   -3.0256 C   0  0  0  0  0  0  0  0  0  0  0  0
  -20.8876   26.1791   -2.6659 O   0  0  0  0  0  0  0  0  0  0  0  0
  -22.2645   24.5506   -5.5503 C   0  0  0  0  0  0  0  0  0  0  0  0
  -21.8040   25.5490   -3.4833 C   0  0  0  0  0  0  0  0  0  0  0  0
  1  6  2  0
  1  7  1  0
  2  3  2  0
  2  6  1  0
  3  4  1  0
  4  7  2  0
  5  7  1  0
M  END
$$$$
