
     RDKit          3D

 23 26  0  0  0  0  0  0  0  0999 V2000
   31.5704   23.6351    3.2800 C   0  0  0  0  0  0  0  0  0  0  0  0
   30.2001   23.4876    3.0690 N   0  0  0  0  0  0  0  0  0  0  0  0
   32.2380   26.0967    5.8058 C   0  0  1  0  0  0  0  0  0  0  0  0
   28.3709   23.7294    1.7700 O   0  0  0  0  0  0  0  0  0  0  0  0
   31.6851   26.6810    0.2183 C   0  0  0  0  0  0  0  0  0  0  0  0
   29.5528   26.7520    1.8584 C   0  0  0  0  0  0  0  0  0  0  0  0
   33.9811   23.7703    3.1362 C   0  0  0  0  0  0  0  0  0  0  0  0
   30.0569   27.9000    1.3189 C   0  0  0  0  0  0  0  0  0  0  0  0
   31.0784   24.2286    5.5345 C   0  0  0  0  0  0  0  0  0  0  0  0
   34.1467   26.2527    7.3292 O   0  0  0  0  0  0  0  0  0  0  0  0
   30.4317   23.2503    5.7803 O   0  0  0  0  0  0  0  0  0  0  0  0
   34.4301   25.2441    5.1028 C   0  0  2  0  0  0  0  0  0  0  0  0
   35.5567   24.3838    5.3785 O   0  0  0  0  0  0  0  0  0  0  0  0
   31.1277   27.8880    0.4795 C   0  0  0  0  0  0  0  0  0  0  0  0
   33.5144   25.5350    6.2911 C   0  0  2  0  0  0  0  0  0  0  0  0
   32.0382   24.5637    4.3981 C   0  0  2  0  0  0  0  0  0  0  0  0
   32.5175   23.0381    2.5307 C   0  0  0  0  0  0  0  0  0  0  0  0
   30.1158   25.5034    1.5627 C   0  0  0  0  0  0  0  0  0  0  0  0
   31.9457   26.0674    4.3347 C   0  0  0  0  0  0  0  0  0  0  0  0
   33.5664   24.5044    4.1517 C   0  0  0  0  0  0  0  0  0  0  0  0
   29.6081   24.2051    2.1574 C   0  0  0  0  0  0  0  0  0  0  0  0
   31.2063   25.5161    0.7292 C   0  0  0  0  0  0  0  0  0  0  0  0
   31.1657   25.3360    6.4048 N   0  0  0  0  0  0  0  0  0  0  0  0
  1  2  1  0
 16  1  1  6
  1 17  2  0
  2 21  1  0
  3 15  1  0
  3 19  1  0
  3 23  1  1
  4 21  2  0
  5 14  2  0
  5 22  1  0
  6  8  2  0
  6 18  1  0
  7 17  1  0
  7 20  2  0
  8 14  1  0
  9 11  2  0
  9 16  1  0
  9 23  1  0
 15 10  1  1
 12 13  1  1
 12 15  1  0
 12 20  1  0
 16 19  1  0
 16 20  1  0
 18 21  1  0
 18 22  2  0
M  END
