
     RDKit          3D

 23 23  0  0  0  0  0  0  0  0999 V2000
    7.1998  109.3121   24.5936 P   0  0  0  0  0  0  0  0  0  0  0  0
    8.2544  109.2229   23.5366 O   0  0  0  0  0  0  0  0  0  0  0  0
    7.6984  110.1256   25.8265 O   0  0  0  0  0  0  0  0  0  0  0  0
    3.4105  106.7670   25.3317 C   0  0  0  0  0  0  0  0  0  0  0  0
   -0.9505  105.0416   22.0925 O   0  0  0  0  0  0  0  0  0  0  0  0
    0.1200  106.6086   23.2368 N   0  0  0  0  0  0  0  0  0  0  0  0
   -4.2783  109.1796   20.9508 C   0  0  0  0  0  0  0  0  0  0  0  0
    6.8561  107.8213   25.2148 O   0  0  0  0  0  0  0  0  0  0  0  0
   -2.9524  108.7128   20.7242 C   0  0  0  0  0  0  0  0  0  0  0  0
   -0.6805  106.2010   22.2673 C   0  0  0  0  0  0  0  0  0  0  0  0
    4.2268  107.9368   25.5991 C   0  0  0  0  0  0  0  0  0  0  0  0
   -0.3793  107.7505   20.3540 C   0  0  0  0  0  0  0  0  0  0  0  0
    5.9716  106.0368   26.8240 O   0  0  0  0  0  0  0  0  0  0  0  0
    2.9326  106.9055   23.9336 C   0  0  0  0  0  0  0  0  0  0  0  0
    0.7869  105.6965   24.0793 C   0  0  0  0  0  0  0  0  0  0  0  0
    2.2033  105.6500   23.5601 C   0  0  0  0  0  0  0  0  0  0  0  0
    5.7574  107.4931   26.3570 P   0  0  0  0  0  0  0  0  0  0  0  0
    5.9741  109.8730   23.9804 O   0  0  0  0  0  0  0  0  0  0  0  0
   -1.1881  107.2505   21.3907 C   0  0  0  0  0  0  0  0  0  0  0  0
   -2.1597  109.2256   19.6741 C   0  0  0  0  0  0  0  0  0  0  0  0
   -0.8762  108.7283   19.5022 C   0  0  0  0  0  0  0  0  0  0  0  0
   -2.4841  107.7200   21.5765 C   0  0  0  0  0  0  0  0  0  0  0  0
    5.9376  108.4352   27.4899 O   0  0  0  0  0  0  0  0  0  0  0  0
  1  2  1  0
  1  3  1  0
  1  8  1  0
  1 18  2  0
  4 11  1  0
  4 14  1  0
  5 10  2  0
  6 10  1  0
  6 15  1  0
  7  9  1  0
  8 17  1  0
  9 20  1  0
  9 22  2  0
 10 19  1  0
 11 17  1  0
 12 19  2  0
 12 21  1  0
 13 17  1  0
 14 16  1  0
 15 16  1  0
 17 23  2  0
 19 22  1  0
 20 21  2  0
M  END
$$$$
