
     RDKit          3D

 13 13  0  0  0  0  0  0  0  0999 V2000
   61.6337   53.6538  107.4479 C   0  0  2  0  0  0  0  0  0  0  0  0
   61.5162   55.0086  106.7451 C   0  0  0  0  0  0  0  0  0  0  0  0
   62.7400   52.0458  109.0627 C   0  0  0  0  0  0  0  0  0  0  0  0
   62.6877   53.5473  108.6152 C   0  0  1  0  0  0  0  0  0  0  0  0
   61.9373   52.7177  106.4067 O   0  0  0  0  0  0  0  0  0  0  0  0
   63.5776   55.3325  110.0864 C   0  0  1  0  0  0  0  0  0  0  0  0
   61.7188   53.9597  110.8935 O   0  0  0  0  0  0  0  0  0  0  0  0
   64.0908   54.0257  108.1380 C   0  0  0  0  0  0  0  0  0  0  0  0
   63.6684   51.6464  110.2190 C   0  0  0  0  0  0  0  0  0  0  0  0
   62.2989   54.5554  109.7432 C   0  0  2  0  0  0  0  0  0  0  0  0
   63.6609   50.1357  110.4252 C   0  0  0  0  0  0  0  0  0  0  0  0
   64.3316   54.6113  111.0595 O   0  0  0  0  0  0  0  0  0  0  0  0
   64.3115   55.4046  108.7596 C   0  0  0  0  0  0  0  0  0  0  0  0
  1  2  1  6
  1  4  1  0
  1  5  1  0
  4  3  1  1
  3  9  1  0
  4  8  1  0
  4 10  1  0
  6 10  1  0
  6 12  1  1
  6 13  1  0
 10  7  1  1
  8 13  1  0
  9 11  1  0
M  END
$$$$
