
     RDKit          3D

 11 12  0  0  0  0  0  0  0  0999 V2000
   63.5986   55.6110  110.1334 C   0  0  1  0  0  0  0  0  0  0  0  0
   64.0126   52.7215  110.1299 C   0  0  1  0  0  0  0  0  0  0  0  0
   64.1997   54.6630  107.9406 O   0  0  0  0  0  0  0  0  0  0  0  0
   63.4307   54.1097  110.3373 C   0  0  1  0  0  0  0  0  0  0  0  0
   64.9655   56.0998  110.1048 O   0  0  0  0  0  0  0  0  0  0  0  0
   64.7199   53.6278  110.9651 N   0  0  0  0  0  0  0  0  0  0  0  0
   62.0539   51.4039  109.9591 O   0  0  0  0  0  0  0  0  0  0  0  0
   61.7050   55.8089  107.4118 O   0  0  0  0  0  0  0  0  0  0  0  0
   63.1898   54.7927  108.9761 C   0  0  1  0  0  0  0  0  0  0  0  0
   61.7874   54.8381  108.4515 C   0  0  0  0  0  0  0  0  0  0  0  0
   63.2691   51.5519  110.6804 C   0  0  0  0  0  0  0  0  0  0  0  0
  1  4  1  0
  1  5  1  6
  1  9  1  0
  2  4  1  0
  2  6  1  0
  2 11  1  1
  9  3  1  6
  4  6  1  1
  4  9  1  0
  7 11  1  0
  8 10  1  0
  9 10  1  0
M  END
$$$$
