
     RDKit          3D

 18 20  0  0  0  0  0  0  0  0999 V2000
   -1.2005   -2.1816    0.0861 O   0  0  0  0  0  0  0  0  0  0  0  0
   -4.7271    0.3991    0.5356 C   0  0  0  0  0  0  0  0  0  0  0  0
   -4.2911    1.7180    0.7652 C   0  0  0  0  0  0  0  0  0  0  0  0
    2.3138   -0.4185   -0.1206 C   0  0  0  0  0  0  0  0  0  0  0  0
   -0.1571   -0.1150   -0.7647 C   0  0  1  0  0  0  0  0  0  0  0  0
    2.8057    0.4589   -1.1081 C   0  0  0  0  0  0  0  0  0  0  0  0
   -0.6957    1.2075   -0.3181 C   0  0  0  0  0  0  0  0  0  0  0  0
    0.9057   -0.5506    0.1509 N   0  0  0  0  0  0  0  0  0  0  0  0
    5.0791   -0.1895   -0.5768 C   0  0  0  0  0  0  0  0  0  0  0  0
   -2.5047   -0.1971   -0.1881 C   0  0  0  0  0  0  0  0  0  0  0  0
   -1.4037   -1.0591   -0.7336 C   0  0  2  0  0  0  0  0  0  0  0  0
    4.1818    0.5668   -1.3341 C   0  0  0  0  0  0  0  0  0  0  0  0
   -0.0253    2.2720   -0.2547 O   0  0  0  0  0  0  0  0  0  0  0  0
    4.6027   -1.0512    0.4134 C   0  0  0  0  0  0  0  0  0  0  0  0
   -2.0897    1.0938    0.0299 C   0  0  0  0  0  0  0  0  0  0  0  0
   -2.9584    2.0760    0.5085 C   0  0  0  0  0  0  0  0  0  0  0  0
   -3.8315   -0.5683    0.0505 C   0  0  0  0  0  0  0  0  0  0  0  0
    3.2283   -1.1620    0.6439 C   0  0  0  0  0  0  0  0  0  0  0  0
 11  1  1  1
  2  3  2  0
  2 17  1  0
  3 16  1  0
  4  6  2  0
  4  8  1  0
  4 18  1  0
  5  7  1  0
  5  8  1  1
  5 11  1  0
  6 12  1  0
  7 13  2  0
  7 15  1  0
  9 12  2  0
  9 14  1  0
 10 11  1  0
 10 15  1  0
 10 17  2  0
 14 18  2  0
 15 16  2  0
M  END
