
     RDKit          3D

 18 19  0  0  0  0  0  0  0  0999 V2000
   -0.7106   -0.1998    0.7136 C   0  0  2  0  0  0  0  0  0  0  0  0
   -1.3954    0.5207   -0.4744 C   0  0  0  0  0  0  0  0  0  0  0  0
   -4.5604   -0.5092   -2.3367 C   0  0  0  0  0  0  0  0  0  0  0  0
    4.0722    1.3944   -0.2925 C   0  0  0  0  0  0  0  0  0  0  0  0
    1.6631    0.6526    0.1465 C   0  0  0  0  0  0  0  0  0  0  0  0
   -2.9706   -0.6253    1.6299 C   0  0  0  0  0  0  0  0  0  0  0  0
   -4.8286   -1.0852    0.0003 C   0  0  0  0  0  0  0  0  0  0  0  0
   -1.6270   -0.2907    1.8131 O   0  0  0  0  0  0  0  0  0  0  0  0
   -3.2782   -0.0186   -2.0735 C   0  0  0  0  0  0  0  0  0  0  0  0
    2.9164    1.3205    0.7326 C   0  0  0  0  0  0  0  0  0  0  0  0
    5.1332    0.4054   -0.0429 N   0  0  0  0  0  0  0  0  0  0  0  0
    0.5403    0.5731    1.1955 C   0  0  0  0  0  0  0  0  0  0  0  0
   -0.3485   -1.4972    0.3051 O   0  0  0  0  0  0  0  0  0  0  0  0
   -3.5389   -0.5995    0.2710 C   0  0  0  0  0  0  0  0  0  0  0  0
   -5.3335   -1.0422   -1.3022 C   0  0  0  0  0  0  0  0  0  0  0  0
    4.6954   -0.9644   -0.3192 C   0  0  0  0  0  0  0  0  0  0  0  0
   -2.7532   -0.0733   -0.7726 C   0  0  0  0  0  0  0  0  0  0  0  0
   -3.6823   -0.9167    2.6275 O   0  0  0  0  0  0  0  0  0  0  0  0
  1  2  1  0
  1  8  1  0
  1 12  1  0
  1 13  1  6
  2 17  1  0
  3  9  1  0
  3 15  2  0
  4 10  1  0
  4 11  1  0
  5 10  1  0
  5 12  1  0
  6  8  1  0
  6 14  1  0
  6 18  2  0
  7 14  2  0
  7 15  1  0
  9 17  2  0
 11 16  1  0
 14 17  1  0
M  END
