
     RDKit          3D

 19 22  0  0  0  0  0  0  0  0999 V2000
   -3.9478    1.7432    0.5648 C   0  0  0  0  0  0  0  0  0  0  0  0
   -1.0034   -0.6043    1.1610 C   0  0  1  0  0  0  0  0  0  0  0  0
    1.6915   -0.5928   -1.3737 C   0  0  0  0  0  0  0  0  0  0  0  0
    3.7265   -0.4506   -1.9412 C   0  0  0  0  0  0  0  0  0  0  0  0
    1.5840   -0.3180    0.9327 C   0  0  2  0  0  0  0  0  0  0  0  0
    3.6589   -0.5482   -0.5591 C   0  0  0  0  0  0  0  0  0  0  0  0
    0.1861   -0.0392    0.3454 C   0  0  2  0  0  0  0  0  0  0  0  0
   -4.6913    1.0435   -0.3896 C   0  0  0  0  0  0  0  0  0  0  0  0
   -2.3141   -0.0610    0.6320 C   0  0  0  0  0  0  0  0  0  0  0  0
    2.4729   -0.4403   -2.4625 N   0  0  0  0  0  0  0  0  0  0  0  0
   -3.0624   -0.7503   -0.3422 C   0  0  0  0  0  0  0  0  0  0  0  0
   -4.2464   -0.2013   -0.8438 C   0  0  0  0  0  0  0  0  0  0  0  0
   -6.1756    1.7306   -1.0233 Cl  0  0  0  0  0  0  0  0  0  0  0  0
    1.0040    1.0943    0.9650 C   0  0  0  0  0  0  0  0  0  0  0  0
    0.2721   -0.2157   -1.2006 C   0  0  0  0  0  0  0  0  0  0  0  0
    4.7650   -0.2854    0.4083 C   0  0  0  0  0  0  0  0  0  0  0  0
   -2.7635    1.1980    1.0688 C   0  0  0  0  0  0  0  0  0  0  0  0
   -1.0023   -2.0126    1.1994 O   0  0  0  0  0  0  0  0  0  0  0  0
    2.3639   -0.6522   -0.2393 N   0  0  0  0  0  0  0  0  0  0  0  0
  1  8  1  0
  1 17  2  0
  2  7  1  0
  2  9  1  0
  2 18  1  6
  3 10  2  0
  3 15  1  0
  3 19  1  0
  4  6  2  0
  4 10  1  0
  5  7  1  0
  5 14  1  6
  5 19  1  0
  6 16  1  0
  6 19  1  0
  7 14  1  6
  7 15  1  0
  8 12  2  0
  8 13  1  0
  9 11  2  0
  9 17  1  0
 11 12  1  0
M  END
