
     RDKit          3D

 15 16  0  0  0  0  0  0  0  0999 V2000
   -3.4024   -0.3860    0.2922 C   0  0  0  0  0  0  0  0  0  0  0  0
   -4.0394    0.7282   -0.2597 C   0  0  0  0  0  0  0  0  0  0  0  0
    5.9859   -1.2080   -1.5804 S   0  0  0  0  0  0  0  0  0  0  0  0
   -1.2432    0.4956   -0.4034 C   0  0  0  0  0  0  0  0  0  0  0  0
    4.6104   -1.0179   -0.7195 C   0  0  0  0  0  0  0  0  0  0  0  0
    2.4211   -0.5778    0.1674 C   0  0  0  0  0  0  0  0  0  0  0  0
   -1.8960    1.5997   -0.9747 C   0  0  0  0  0  0  0  0  0  0  0  0
   -2.0112   -0.5082    0.2167 C   0  0  0  0  0  0  0  0  0  0  0  0
    0.5786   -0.4604    1.6310 O   0  0  0  0  0  0  0  0  0  0  0  0
    0.1862    0.3844   -0.5175 N   0  0  0  0  0  0  0  0  0  0  0  0
    4.4824   -1.3509    0.5820 N   0  0  0  0  0  0  0  0  0  0  0  0
    1.0236   -0.2350    0.4732 C   0  0  0  0  0  0  0  0  0  0  0  0
    3.2702   -1.1100    1.0773 N   0  0  0  0  0  0  0  0  0  0  0  0
   -3.2871    1.7184   -0.8962 C   0  0  0  0  0  0  0  0  0  0  0  0
    3.1773   -0.3893   -1.3334 S   0  0  0  0  0  0  0  0  0  0  0  0
  1  2  2  0
  1  8  1  0
  2 14  1  0
  3  5  2  0
  4  7  1  0
  4  8  2  0
  4 10  1  0
  5 11  1  0
  5 15  1  0
  6 12  1  0
  6 13  2  0
  6 15  1  0
  7 14  2  0
  9 12  2  0
 10 12  1  0
 11 13  1  0
M  END
