
     RDKit          3D

 14 15  0  0  0  0  0  0  0  0999 V2000
    0.9349   -0.9749   -1.0178 C   0  0  0  0  0  0  0  0  0  0  0  0
   -1.4455   -0.6994   -1.6490 C   0  0  0  0  0  0  0  0  0  0  0  0
   -0.9178   -1.7126    0.4485 C   0  0  0  0  0  0  0  0  0  0  0  0
   -2.7185   -0.4115    1.7758 C   0  0  0  0  0  0  0  0  0  0  0  0
   -3.7487    0.5396    1.6907 C   0  0  0  0  0  0  0  0  0  0  0  0
   -0.4382   -1.5289   -0.9433 N   0  0  0  0  0  0  0  0  0  0  0  0
   -2.0154   -0.7350    0.6139 C   0  0  0  0  0  0  0  0  0  0  0  0
    2.5009    0.8666   -0.4961 N   0  0  0  0  0  0  0  0  0  0  0  0
    1.1022    0.4265   -0.3824 C   0  0  0  0  0  0  0  0  0  0  0  0
   -2.3161   -0.1552   -0.5842 C   0  0  0  0  0  0  0  0  0  0  0  0
    4.7638    0.7601    0.4405 C   0  0  0  0  0  0  0  0  0  0  0  0
   -3.3405    0.7861   -0.7004 C   0  0  0  0  0  0  0  0  0  0  0  0
    3.2891    0.4565    0.6738 C   0  0  0  0  0  0  0  0  0  0  0  0
   -4.0593    1.1377    0.4539 C   0  0  0  0  0  0  0  0  0  0  0  0
  1  6  1  0
  1  9  1  0
  2  6  1  0
  2 10  1  0
  3  6  1  0
  3  7  1  0
  4  5  1  0
  4  7  2  0
  5 14  2  0
  7 10  1  0
  8  9  1  0
  8 13  1  0
 10 12  2  0
 11 13  1  0
 12 14  1  0
M  END
