
     RDKit          3D

 20 23  0  0  0  0  0  0  0  0999 V2000
   -1.5036   -0.6969    0.0605 N   0  0  0  0  0  0  0  0  0  0  0  0
   -1.8264   -2.1547    0.3062 C   0  0  0  0  0  0  0  0  0  0  0  0
    2.5314   -0.8484    1.7277 N   0  0  0  0  0  0  0  0  0  0  0  0
    0.5707   -1.1434   -1.9806 O   0  0  0  0  0  0  0  0  0  0  0  0
    1.6049   -1.1109    0.8206 N   0  0  0  0  0  0  0  0  0  0  0  0
    5.4959    0.6375    1.6318 C   0  0  0  0  0  0  0  0  0  0  0  0
    3.0324    0.3722    1.4538 C   0  0  0  0  0  0  0  0  0  0  0  0
    1.5185   -0.0803   -0.0436 C   0  0  0  0  0  0  0  0  0  0  0  0
    2.4190    0.8962    0.3319 C   0  0  0  0  0  0  0  0  0  0  0  0
   -1.8821    0.7541   -1.7914 C   0  0  2  0  0  0  0  0  0  0  0  0
    4.1431    1.0123    2.2258 C   0  0  0  0  0  0  0  0  0  0  0  0
   -2.7056   -1.1143    0.6498 C   0  0  1  0  0  0  0  0  0  0  0  0
   -4.6880    0.3746    0.8396 O   0  0  0  0  0  0  0  0  0  0  0  0
   -3.8666   -1.5384   -0.3131 C   0  0  0  0  0  0  0  0  0  0  0  0
   -0.8810    0.3726   -0.6846 C   0  0  2  0  0  0  0  0  0  0  0  0
   -1.5431   -3.3770    0.2017 O   0  0  0  0  0  0  0  0  0  0  0  0
    0.5408    0.0189   -1.1888 C   0  0  2  0  0  0  0  0  0  0  0  0
   -3.7029   -0.1112   -0.0277 C   0  0  2  0  0  0  0  0  0  0  0  0
   -3.3385    0.8283   -1.2344 C   0  0  0  0  0  0  0  0  0  0  0  0
   -1.8166   -0.1115   -2.8986 O   0  0  0  0  0  0  0  0  0  0  0  0
  1  2  1  0
  1 12  1  0
 15  1  1  6
  2 12  1  0
  2 16  2  0
  3  5  1  0
  3  7  2  0
 17  4  1  1
  5  8  1  0
  6 11  1  0
  7  9  1  0
  7 11  1  0
  8  9  2  0
  8 17  1  0
 10 15  1  0
 10 19  1  0
 10 20  1  6
 12 14  1  6
 12 18  1  0
 18 13  1  1
 14 18  1  0
 15 17  1  0
 18 19  1  0
M  END
