
     RDKit          3D

 14 14  0  0  0  0  0  0  0  0999 V2000
   -1.8784   -0.1742    0.2307 C   0  0  0  0  0  0  0  0  0  0  0  0
   -4.6110   -0.0277   -0.4713 C   0  0  0  0  0  0  0  0  0  0  0  0
    2.0255    0.2409    0.1934 C   0  0  0  0  0  0  0  0  0  0  0  0
   -2.5523   -1.4242    2.2458 O   0  0  0  0  0  0  0  0  0  0  0  0
   -2.2913    0.4792   -0.9529 C   0  0  0  0  0  0  0  0  0  0  0  0
   -5.9617    0.0380   -0.8060 O   0  0  0  0  0  0  0  0  0  0  0  0
    2.9623    0.8699   -0.7474 N   0  0  0  0  0  0  0  0  0  0  0  0
   -0.4143   -0.2698    0.6354 C   0  0  0  0  0  0  0  0  0  0  0  0
    0.5902    0.3979   -0.3183 C   0  0  0  0  0  0  0  0  0  0  0  0
   -4.2218   -0.6774    0.7004 C   0  0  0  0  0  0  0  0  0  0  0  0
    4.8504   -0.6892   -1.0105 C   0  0  0  0  0  0  0  0  0  0  0  0
    4.3590    0.6062   -0.3718 C   0  0  0  0  0  0  0  0  0  0  0  0
   -2.8712   -0.7576    1.0597 C   0  0  0  0  0  0  0  0  0  0  0  0
   -3.6430    0.5498   -1.2964 C   0  0  0  0  0  0  0  0  0  0  0  0
  1  5  1  0
  1  8  1  0
  1 13  2  0
  2  6  1  0
  2 10  2  0
  2 14  1  0
  3  7  1  0
  3  9  1  0
  4 13  1  0
  5 14  2  0
  7 12  1  0
  8  9  1  0
 10 13  1  0
 11 12  1  0
M  END
