
     RDKit          3D

 18 19  0  0  0  0  0  0  0  0999 V2000
   -2.9242    0.1762   -1.3357 C   0  0  0  0  0  0  0  0  0  0  0  0
   -3.8509   -0.3865    1.2273 C   0  0  0  0  0  0  0  0  0  0  0  0
   -0.5517   -1.0090   -3.1896 O   0  0  0  0  0  0  0  0  0  0  0  0
    2.4609   -0.2571   -0.0231 C   0  0  0  0  0  0  0  0  0  0  0  0
   -2.3050    0.3581   -2.5512 O   0  0  0  0  0  0  0  0  0  0  0  0
   -1.3128   -1.0154    2.1593 Cl  0  0  0  0  0  0  0  0  0  0  0  0
    0.2260    0.9615   -0.2799 C   0  0  0  0  0  0  0  0  0  0  0  0
    5.0931   -0.2459    1.8159 C   0  0  0  0  0  0  0  0  0  0  0  0
    1.7050    0.8942   -0.7014 C   0  0  0  0  0  0  0  0  0  0  0  0
   -4.3733   -0.7182    2.5973 C   0  0  0  0  0  0  0  0  0  0  0  0
   -2.4649   -0.4660    0.9425 C   0  0  0  0  0  0  0  0  0  0  0  0
    4.6756    0.5880    0.6010 C   0  0  0  0  0  0  0  0  0  0  0  0
   -2.0297   -0.1401   -0.3520 C   0  0  0  0  0  0  0  0  0  0  0  0
   -4.7541   -0.0165    0.2032 C   0  0  0  0  0  0  0  0  0  0  0  0
    3.8895   -0.1937   -0.3693 N   0  0  0  0  0  0  0  0  0  0  0  0
   -0.6422   -0.1472   -0.9197 C   0  0  1  0  0  0  0  0  0  0  0  0
   -4.2905    0.2596   -1.0905 C   0  0  0  0  0  0  0  0  0  0  0  0
   -0.9024    0.1202   -2.4372 C   0  0  1  0  0  0  0  0  0  0  0  0
  1  5  1  0
  1 13  2  0
  1 17  1  0
  2 10  1  0
  2 11  2  0
  2 14  1  0
 18  3  1  6
  4  9  1  0
  4 15  1  0
  5 18  1  0
  6 11  1  0
  7  9  1  0
 16  7  1  1
  8 12  1  0
 11 13  1  0
 12 15  1  0
 13 16  1  0
 14 17  2  0
 16 18  1  0
M  END
