
     RDKit          3D

 11 11  0  0  0  0  0  0  0  0999 V2000
  -25.3664   13.7673   -0.8277 O   0  0  0  0  0  0  0  0  0  0  0  0
  -22.9850   14.1652   -1.2773 O   0  0  0  0  0  0  0  0  0  0  0  0
  -23.2937   14.9652   -0.1250 C   0  0  0  0  0  0  0  0  0  0  0  0
  -24.7576   10.1543   -1.7984 C   0  0  1  0  0  0  0  0  0  0  0  0
  -24.8669   11.4151   -0.9365 C   0  0  0  0  0  0  0  0  0  0  0  0
  -25.4529   12.6163   -1.6728 C   0  0  0  0  0  0  0  0  0  0  0  0
  -24.6703   15.7172   -2.1989 C   0  0  0  0  0  0  0  0  0  0  0  0
  -26.0998    9.6583   -2.3497 C   0  0  0  0  0  0  0  0  0  0  0  0
  -23.8626   10.3751   -2.8876 O   0  0  0  0  0  0  0  0  0  0  0  0
  -27.0355    9.4089   -1.3091 O   0  0  0  0  0  0  0  0  0  0  0  0
  -24.3167   14.6817   -1.1905 C   0  0  2  0  0  0  0  0  0  0  0  0
  1  6  1  0
  1 11  1  0
  2  3  1  0
  2 11  1  0
  3 11  1  0
  4  5  1  0
  4  8  1  0
  4  9  1  6
  5  6  1  0
 11  7  1  6
  8 10  1  0
M  END
$$$$
