
     RDKit          3D

 37 40  0  0  0  0  0  0  0  0999 V2000
    2.2247   -0.2850   -1.6730 C   0  0  2  0  0  0  0  0  0  0  0  0
   -5.4133    3.2316    0.0360 C   0  0  0  0  0  0  0  0  0  0  0  0
   -2.7334   -4.0764   -3.3283 N   0  0  0  0  0  0  0  0  0  0  0  0
    6.4251   -0.7277    3.1026 N   0  0  0  0  0  0  0  0  0  0  0  0
   -3.2703    2.2687    1.5502 C   0  0  0  0  0  0  0  0  0  0  0  0
   -2.3792   -2.7678   -3.7749 C   0  0  0  0  0  0  0  0  0  0  0  0
   -4.7234    4.0921    0.8930 C   0  0  0  0  0  0  0  0  0  0  0  0
   -1.2576   -2.2304    1.0943 O   0  0  0  0  0  0  0  0  0  0  0  0
   -3.1334   -0.8579    1.7981 C   0  0  2  0  0  0  0  0  0  0  0  0
    5.4741    0.2956    2.7639 C   0  0  0  0  0  0  0  0  0  0  0  0
   -0.2443   -0.1945   -1.0902 C   0  0  2  0  0  0  0  0  0  0  0  0
   -1.3281   -0.6809   -3.3479 C   0  0  0  0  0  0  0  0  0  0  0  0
   -0.9513    0.0574    1.2354 O   0  0  0  0  0  0  0  0  0  0  0  0
    3.8736   -0.6817    1.1635 N   0  0  0  0  0  0  0  0  0  0  0  0
    1.1943    1.7424   -0.8237 O   0  0  0  0  0  0  0  0  0  0  0  0
   -0.5985    0.1854   -2.4646 N   0  0  0  0  0  0  0  0  0  0  0  0
   -2.5914   -0.2311   -0.4930 O   0  0  0  0  0  0  0  0  0  0  0  0
    3.6552   -0.3271   -1.2499 C   0  0  2  0  0  0  0  0  0  0  0  0
   -1.3305    0.3162   -0.1179 C   0  0  2  0  0  0  0  0  0  0  0  0
   -3.9711    1.3826    0.7048 C   0  0  0  0  0  0  0  0  0  0  0  0
   -1.6809   -1.9367   -2.9570 N   0  0  0  0  0  0  0  0  0  0  0  0
   -3.6506    3.6102    1.6467 C   0  0  0  0  0  0  0  0  0  0  0  0
    7.8195   -0.4984    3.3511 C   0  0  0  0  0  0  0  0  0  0  0  0
   -3.5357   -0.2108    2.9785 O   0  0  0  0  0  0  0  0  0  0  0  0
   -1.6965   -0.2409   -4.6255 C   0  0  0  0  0  0  0  0  0  0  0  0
   -1.6084   -1.0619    1.7949 C   0  0  2  0  0  0  0  0  0  0  0  0
    4.0936    0.2880    0.0833 C   0  0  0  0  0  0  0  0  0  0  0  0
    3.1717    0.6575   -2.1336 O   0  0  0  0  0  0  0  0  0  0  0  0
   -2.3941   -1.0705   -5.4451 N   0  0  0  0  0  0  0  0  0  0  0  0
    4.0415   -0.0730    2.4912 C   0  0  0  0  0  0  0  0  0  0  0  0
    5.8287    1.5014    2.6652 O   0  0  0  0  0  0  0  0  0  0  0  0
    8.3326    0.6870    3.2818 N   0  0  0  0  0  0  0  0  0  0  0  0
   -5.1958    5.7770    1.0140 Cl  0  0  0  0  0  0  0  0  0  0  0  0
   -3.5604   -0.0808    0.5265 C   0  0  2  0  0  0  0  0  0  0  0  0
   -5.0362    1.8893   -0.0637 C   0  0  0  0  0  0  0  0  0  0  0  0
   -2.7438   -2.3225   -5.0501 C   0  0  0  0  0  0  0  0  0  0  0  0
    1.1656    0.3377   -0.7324 C   0  0  2  0  0  0  0  0  0  0  0  0
  1 18  1  0
  1 28  1  6
  1 37  1  0
  2  7  1  0
  2 35  2  0
  3  6  1  0
  4 10  1  0
  4 23  1  0
  5 20  2  0
  5 22  1  0
  6 21  2  0
  6 36  1  0
  7 22  2  0
  7 33  1  0
 26  8  1  6
  9 24  1  1
  9 26  1  0
  9 34  1  0
 10 30  1  0
 10 31  2  0
 11 16  1  6
 11 19  1  0
 11 37  1  0
 12 16  1  0
 12 21  1  0
 12 25  2  0
 19 13  1  1
 13 26  1  0
 14 27  1  0
 14 30  1  0
 37 15  1  6
 17 19  1  0
 17 34  1  0
 18 27  1  1
 18 28  1  0
 34 20  1  1
 20 35  1  0
 23 32  2  0
 25 29  1  0
 29 36  2  0
M  END
