
     RDKit          3D

 38 40  0  0  0  0  0  0  0  0999 V2000
   -3.6215   -1.9453    2.4472 O   0  0  0  0  0  0  0  0  0  0  0  0
    0.8623    4.4843   -0.7462 C   0  0  1  0  0  0  0  0  0  0  0  0
   -0.3023    0.0537    0.2514 C   0  0  2  0  0  0  0  0  0  0  0  0
   -3.2527    0.0539    1.3207 O   0  0  0  0  0  0  0  0  0  0  0  0
    6.2352   -4.9669   -1.8559 C   0  0  0  0  0  0  0  0  0  0  0  0
    4.5009    0.3124    0.1906 C   0  0  2  0  0  0  0  0  0  0  0  0
    4.5976   -0.5290    1.3201 O   0  0  0  0  0  0  0  0  0  0  0  0
    4.5927   -3.3034   -0.9265 C   0  0  0  0  0  0  0  0  0  0  0  0
   -0.1510    4.4544    1.4682 O   0  0  0  0  0  0  0  0  0  0  0  0
    0.9299    0.8597   -0.2711 C   0  0  2  0  0  0  0  0  0  0  0  0
   -2.8980   -0.2143   -0.0243 C   0  0  2  0  0  0  0  0  0  0  0  0
   -1.6291    0.5980   -0.4041 C   0  0  2  0  0  0  0  0  0  0  0  0
    0.6905    5.1938    0.6188 C   0  0  0  0  0  0  0  0  0  0  0  0
    3.2150   -1.2143   -1.0815 C   0  0  0  0  0  0  0  0  0  0  0  0
   -5.2828   -1.3189    0.7531 C   0  0  1  0  0  0  0  0  0  0  0  0
    4.2996   -1.8740   -0.6788 C   0  0  0  0  0  0  0  0  0  0  0  0
   -6.3499   -0.6265   -1.3008 O   0  0  0  0  0  0  0  0  0  0  0  0
    3.6453   -4.1234   -1.0691 O   0  0  0  0  0  0  0  0  0  0  0  0
    1.9308    5.4345    1.2402 O   0  0  0  0  0  0  0  0  0  0  0  0
    1.5813    5.3284   -1.6098 O   0  0  0  0  0  0  0  0  0  0  0  0
   -4.0903    0.1444   -0.9444 C   0  0  0  0  0  0  0  0  0  0  0  0
    2.2334   -1.7178   -1.9352 O   0  0  0  0  0  0  0  0  0  0  0  0
   -6.4887   -2.7843    2.3428 N   0  0  0  0  0  0  0  0  0  0  0  0
   -6.2977   -4.0623    1.8719 O   0  0  0  0  0  0  0  0  0  0  0  0
   -6.4349   -2.5662    3.5705 O   0  0  0  0  0  0  0  0  0  0  0  0
   -1.4939    0.5931   -1.8076 O   0  0  0  0  0  0  0  0  0  0  0  0
   -5.4504   -0.2109   -0.3048 C   0  0  2  0  0  0  0  0  0  0  0  0
    3.1769    0.1829   -0.5620 C   0  0  1  0  0  0  0  0  0  0  0  0
    2.1078    0.3609    0.3516 O   0  0  0  0  0  0  0  0  0  0  0  0
   -4.2365   -0.8513    1.8151 C   0  0  1  0  0  0  0  0  0  0  0  0
   -6.6369   -1.6768    1.4046 C   0  0  0  0  0  0  0  0  0  0  0  0
    1.5534    3.1012   -0.6688 C   0  0  2  0  0  0  0  0  0  0  0  0
   -0.3700    0.1729    1.7922 C   0  0  0  0  0  0  0  0  0  0  0  0
    0.7413    2.2212    0.0846 O   0  0  0  0  0  0  0  0  0  0  0  0
    5.1897   -0.9925    0.1276 C   0  0  1  0  0  0  0  0  0  0  0  0
   -0.1265   -1.3102   -0.0561 O   0  0  0  0  0  0  0  0  0  0  0  0
    6.0099   -3.8115   -0.8826 C   0  0  0  0  0  0  0  0  0  0  0  0
    2.8124    3.2136   -0.0561 O   0  0  0  0  0  0  0  0  0  0  0  0
 30  1  1  6
  2 13  1  0
  2 20  1  6
  2 32  1  0
  3 10  1  0
  3 12  1  0
  3 33  1  1
  3 36  1  0
  4 11  1  0
  4 30  1  0
  5 37  1  0
  6  7  1  1
  6 28  1  0
  6 35  1  0
 35  7  1  1
  8 16  1  0
  8 18  2  0
  8 37  1  0
  9 13  1  0
 10 29  1  1
 10 34  1  0
 11 12  1  0
 11 21  1  6
 12 26  1  6
 13 19  1  0
 14 16  2  0
 14 22  1  0
 14 28  1  0
 15 27  1  0
 15 30  1  0
 15 31  1  1
 16 35  1  0
 27 17  1  6
 21 27  1  0
 23 24  1  0
 23 25  2  0
 23 31  1  0
 28 29  1  1
 32 34  1  0
 32 38  1  1
M  CHG  2  23   1  24  -1
M  END
