
     RDKit          3D

 40 43  0  0  0  0  0  0  0  0999 V2000
   -4.8999    3.3604   -0.5015 C   0  0  0  0  0  0  0  0  0  0  0  0
   -6.9979   -2.3216   -0.2011 O   0  0  0  0  0  0  0  0  0  0  0  0
    3.8908   -0.1941    1.8861 C   0  0  2  0  0  0  0  0  0  0  0  0
   -5.6709   -2.3259    0.2645 C   0  0  2  0  0  0  0  0  0  0  0  0
    1.6931   -0.0335   -0.9729 C   0  0  0  0  0  0  0  0  0  0  0  0
    8.5010    0.2056    0.3874 C   0  0  0  0  0  0  0  0  0  0  0  0
    2.0394    0.2128    0.5013 C   0  0  1  0  0  0  0  0  0  0  0  0
    4.4801   -1.3539    2.7075 C   0  0  1  0  0  0  0  0  0  0  0  0
    6.0616   -1.5477    0.7611 N   0  0  0  0  0  0  0  0  0  0  0  0
   -4.1630    1.7769   -2.1560 O   0  0  0  0  0  0  0  0  0  0  0  0
    6.4479   -1.7772   -1.7599 C   0  0  0  0  0  0  0  0  0  0  0  0
   -4.6890    4.1069    0.6581 C   0  0  0  0  0  0  0  0  0  0  0  0
    5.3281   -2.2827    1.8084 C   0  0  0  0  0  0  0  0  0  0  0  0
    5.2708   -0.8350    3.7475 O   0  0  0  0  0  0  0  0  0  0  0  0
    0.7841    0.0563    1.3954 C   0  0  0  0  0  0  0  0  0  0  0  0
   -5.6917    0.3169   -0.2687 O   0  0  0  0  0  0  0  0  0  0  0  0
   -1.5751    1.8119   -1.0138 O   0  0  0  0  0  0  0  0  0  0  0  0
   -5.5570   -1.4130    1.5028 C   0  0  1  0  0  0  0  0  0  0  0  0
    7.0781   -3.4347   -0.1699 O   0  0  0  0  0  0  0  0  0  0  0  0
   -4.2286    0.3383   -2.1906 C   0  0  2  0  0  0  0  0  0  0  0  0
   -0.3246    1.4777   -0.4057 C   0  0  1  0  0  0  0  0  0  0  0  0
   -0.5345    0.4060    0.6776 C   0  0  0  0  0  0  0  0  0  0  0  0
    7.1482    0.6118    0.2068 O   0  0  0  0  0  0  0  0  0  0  0  0
    3.0298   -0.7235    0.8911 O   0  0  0  0  0  0  0  0  0  0  0  0
    6.0631   -0.1020    0.7309 C   0  0  0  0  0  0  0  0  0  0  0  0
   -4.5204   -0.2813   -0.7962 C   0  0  2  0  0  0  0  0  0  0  0  0
   -3.4797   -2.4913   -0.7874 O   0  0  0  0  0  0  0  0  0  0  0  0
   -4.7184   -1.8270   -0.8576 C   0  0  1  0  0  0  0  0  0  0  0  0
   -3.4500    4.0663    1.2964 C   0  0  0  0  0  0  0  0  0  0  0  0
   -2.6098    2.5467   -0.4133 C   0  0  0  0  0  0  0  0  0  0  0  0
    0.6520    0.9775   -1.4950 C   0  0  0  0  0  0  0  0  0  0  0  0
    4.9537    1.9621    1.1935 O   0  0  0  0  0  0  0  0  0  0  0  0
   -3.8793    2.5567   -1.0247 C   0  0  0  0  0  0  0  0  0  0  0  0
   -2.5342    0.5654   -3.9762 N   0  0  0  0  0  0  0  0  0  0  0  0
   -2.9660   -0.2528   -2.8464 C   0  0  0  0  0  0  0  0  0  0  0  0
    5.0175    0.5680    1.2378 C   0  0  0  0  0  0  0  0  0  0  0  0
   -2.4125    3.2960    0.7658 C   0  0  0  0  0  0  0  0  0  0  0  0
    6.5589   -2.3018   -0.3595 C   0  0  0  0  0  0  0  0  0  0  0  0
   -5.7906    0.0761    1.1267 C   0  0  0  0  0  0  0  0  0  0  0  0
   -6.4189   -1.8298    2.5333 O   0  0  0  0  0  0  0  0  0  0  0  0
  1 12  1  0
  1 33  2  0
  4  2  1  6
  3  8  1  0
  3 24  1  6
  3 36  1  0
  4 18  1  0
  4 28  1  0
  5  7  1  0
  5 31  1  0
  6 23  1  0
  7 15  1  0
  7 24  1  1
  8 13  1  0
  8 14  1  1
  9 13  1  0
  9 25  1  0
  9 38  1  0
 10 20  1  0
 10 33  1  0
 11 38  1  0
 12 29  2  0
 15 22  1  0
 26 16  1  6
 16 39  1  0
 21 17  1  6
 17 30  1  0
 18 39  1  0
 18 40  1  1
 19 38  2  0
 20 26  1  0
 20 35  1  1
 21 22  1  0
 21 31  1  0
 23 25  1  0
 25 36  2  0
 26 28  1  0
 28 27  1  1
 29 37  1  0
 30 33  1  0
 30 37  2  0
 32 36  1  0
 34 35  1  0
M  END
