
     RDKit          3D

 11 11  0  0  0  0  0  0  0  0999 V2000
   34.8131   19.3418   36.1040 C   0  0  1  0  0  0  0  0  0  0  0  0
   36.6571   17.1125   38.4128 O   0  0  0  0  0  0  0  0  0  0  0  0
   33.0637   17.4776   36.6043 C   0  0  0  0  0  0  0  0  0  0  0  0
   30.8435   17.2467   35.8286 O   0  0  0  0  0  0  0  0  0  0  0  0
   32.1357   17.7878   35.6497 N   0  0  0  0  0  0  0  0  0  0  0  0
   32.8195   16.8627   37.6358 O   0  0  0  0  0  0  0  0  0  0  0  0
   37.5379   18.8791   37.2778 O   0  0  0  0  0  0  0  0  0  0  0  0
   34.4411   17.8981   36.3013 C   0  0  2  0  0  0  0  0  0  0  0  0
   36.5782   18.2425   37.6795 C   0  0  0  0  0  0  0  0  0  0  0  0
   35.1957   18.6466   37.3838 C   0  0  1  0  0  0  0  0  0  0  0  0
   35.8409   19.5679   35.1249 O   0  0  0  0  0  0  0  0  0  0  0  0
  1  8  1  0
  1 10  1  0
  1 11  1  6
  2  9  1  0
  3  5  1  0
  3  6  2  0
  8  3  1  1
  4  5  1  0
  7  9  2  0
  8 10  1  0
 10  9  1  6
M  END
$$$$
