
     RDKit          3D

 24 27  0  0  0  0  0  0  0  0999 V2000
   35.6977   16.0163   37.9509 C   0  0  0  0  0  0  0  0  0  0  0  0
   34.1081   20.9187   35.2656 N   0  0  0  0  0  0  0  0  0  0  0  0
   36.0695   13.6997   38.8368 C   0  0  0  0  0  0  0  0  0  0  0  0
   37.7575   20.5672   35.4648 O   0  0  0  0  0  0  0  0  0  0  0  0
   33.9213   18.5086   35.6199 C   0  0  2  0  0  0  0  0  0  0  0  0
   36.2351   16.5744   35.5622 C   0  0  0  0  0  0  0  0  0  0  0  0
   31.9003   20.1265   35.9256 C   0  0  2  0  0  0  0  0  0  0  0  0
   31.9108   18.8700   38.0520 O   0  0  0  0  0  0  0  0  0  0  0  0
   31.9063   17.7819   37.1099 C   0  0  1  0  0  0  0  0  0  0  0  0
   31.2475   19.1036   36.8092 C   0  0  2  0  0  0  0  0  0  0  0  0
   35.8145   20.4002   33.8207 O   0  0  0  0  0  0  0  0  0  0  0  0
   29.8117   19.1323   36.8448 O   0  0  0  0  0  0  0  0  0  0  0  0
   31.1867   20.1736   34.6821 O   0  0  0  0  0  0  0  0  0  0  0  0
   36.3323   20.8908   37.2142 O   0  0  0  0  0  0  0  0  0  0  0  0
   37.0855   14.4837   36.6362 C   0  0  0  0  0  0  0  0  0  0  0  0
   35.8136   17.1267   36.9315 C   0  0  1  0  0  0  0  0  0  0  0  0
   37.5523   13.3582   36.4754 O   0  0  0  0  0  0  0  0  0  0  0  0
   34.5730   17.9962   36.8923 C   0  0  2  0  0  0  0  0  0  0  0  0
   33.3786   19.9000   35.6092 C   0  0  0  0  0  0  0  0  0  0  0  0
   35.4247   20.6779   34.9558 C   0  0  0  0  0  0  0  0  0  0  0  0
   36.5423   20.7451   36.0263 C   0  0  0  0  0  0  0  0  0  0  0  0
   33.2321   17.4433   36.4526 C   0  0  2  0  0  0  0  0  0  0  0  0
   37.4083   15.6135   35.6849 C   0  0  0  0  0  0  0  0  0  0  0  0
   36.2358   14.7907   37.8269 C   0  0  0  0  0  0  0  0  0  0  0  0
  1 16  1  0
  1 24  2  0
  2 19  2  3
  2 20  1  0
  3 24  1  0
  4 21  1  0
  5 18  1  0
  5 19  1  1
  5 22  1  0
 16  6  1  6
  6 23  1  0
  7 10  1  0
  7 13  1  6
  7 19  1  0
  9  8  1  1
  8 10  1  0
  9 10  1  0
 22  9  1  1
 10 12  1  1
 11 20  2  0
 14 21  2  0
 15 17  2  0
 15 23  1  0
 15 24  1  0
 18 16  1  6
 18 22  1  0
 20 21  1  0
M  END
$$$$
