
     RDKit          3D

 28 35  0  0  0  0  0  0  0  0999 V2000
   23.5377   14.1975   21.0388 C   0  0  0  0  0  0  0  0  0  0  0  0
   27.0340   16.1344   22.0177 C   0  0  0  0  0  0  0  0  0  0  0  0
   23.4748   15.3475   21.9118 C   0  0  0  0  0  0  0  0  0  0  0  0
   24.5572   14.1137   20.1774 C   0  0  0  0  0  0  0  0  0  0  0  0
   26.6623   14.5891   19.1433 C   0  0  0  0  0  0  0  0  0  0  0  0
   29.2183   14.7485   22.0831 C   0  0  1  0  0  0  0  0  0  0  0  0
   25.8515   15.8322   21.4308 C   0  0  0  0  0  0  0  0  0  0  0  0
   29.1675   11.0864   18.5182 O   0  0  0  0  0  0  0  0  0  0  0  0
   31.7415   13.8881   19.6611 N   0  0  0  0  0  0  0  0  0  0  0  0
   30.7719   12.8457   19.4476 C   0  0  1  0  0  0  0  0  0  0  0  0
   24.9523   12.9005   19.4558 C   0  0  0  0  0  0  0  0  0  0  0  0
   28.8874   11.8114   20.8493 C   0  0  0  0  0  0  0  0  0  0  0  0
   28.2880   11.5413   19.4994 C   0  0  0  0  0  0  0  0  0  0  0  0
   28.3977   15.8939   21.5119 C   0  0  2  0  0  0  0  0  0  0  0  0
   29.9091   13.3635   18.3883 O   0  0  0  0  0  0  0  0  0  0  0  0
   24.2802   11.8897   19.3695 O   0  0  0  0  0  0  0  0  0  0  0  0
   30.1987   14.1147   21.1875 C   0  0  0  0  0  0  0  0  0  0  0  0
   30.2856   12.0057   18.2947 C   0  0  2  0  0  0  0  0  0  0  0  0
   28.6237   16.5838   23.8416 C   0  0  0  0  0  0  0  0  0  0  0  0
   27.1607   16.7691   23.4028 C   0  0  0  0  0  0  0  0  0  0  0  0
   22.5957   13.2277   21.2539 O   0  0  0  0  0  0  0  0  0  0  0  0
   27.2368   12.1981   19.1002 C   0  0  0  0  0  0  0  0  0  0  0  0
   29.3741   16.1485   22.6223 C   0  0  1  0  0  0  0  0  0  0  0  0
   31.1696   14.7723   20.6072 N   0  0  0  0  0  0  0  0  0  0  0  0
   26.3320   13.1250   18.9691 C   0  0  0  0  0  0  0  0  0  0  0  0
   30.1420   12.6563   20.7919 C   0  0  2  0  0  0  0  0  0  0  0  0
   24.5720   16.1013   22.1286 C   0  0  0  0  0  0  0  0  0  0  0  0
   25.5849   15.2062   20.0456 C   0  0  2  0  0  0  0  0  0  0  0  0
  1  3  1  0
  1  4  2  0
  1 21  1  0
  2  7  2  3
 14  2  1  1
  2 20  1  0
  3 27  2  0
  4 11  1  0
  4 28  1  0
  5 25  1  0
 28  5  1  6
  6 14  1  0
  6 17  1  6
  6 23  1  0
  7 27  1  0
  7 28  1  0
  8 13  1  0
 18  8  1  1
 10  9  1  1
  9 24  1  0
 10 15  1  0
 10 18  1  0
 10 26  1  0
 11 16  2  0
 11 25  1  0
 12 13  1  0
 26 12  1  6
 13 22  2  0
 14 23  1  0
 15 18  1  0
 17 24  2  0
 17 26  1  0
 19 20  1  0
 23 19  1  1
 22 25  2  0
M  END
$$$$
