
     RDKit          3D

 24 26  0  0  0  0  0  0  0  0999 V2000
   -0.6334   -0.4952   -1.2769 O   0  0  0  0  0  0  0  0  0  0  0  0
    0.1160   -2.3281    0.0534 C   0  0  2  0  0  0  0  0  0  0  0  0
    2.9505   -1.1132   -1.1115 C   0  0  0  0  0  0  0  0  0  0  0  0
    3.6618    1.9236    0.4490 C   0  0  0  0  0  0  0  0  0  0  0  0
    5.0524    2.2249    0.5657 N   0  0  0  0  0  0  0  0  0  0  0  0
   -2.1001    1.9571    2.7801 O   0  0  0  0  0  0  0  0  0  0  0  0
   -2.7258    3.8642    0.8861 O   0  0  0  0  0  0  0  0  0  0  0  0
    0.9507    1.3574    0.2407 N   0  0  0  0  0  0  0  0  0  0  0  0
   -1.3927   -2.4092   -0.0148 C   0  0  2  0  0  0  0  0  0  0  0  0
    0.4437   -1.3948   -1.1082 C   0  0  2  0  0  0  0  0  0  0  0  0
   -2.9040    2.2377    1.3159 P   0  0  0  0  0  0  0  0  0  0  0  0
    2.7201    2.7877    0.9324 N   0  0  0  0  0  0  0  0  0  0  0  0
   -4.3751    1.9352    1.4895 O   0  0  0  0  0  0  0  0  0  0  0  0
    1.6917   -0.6703   -0.8577 N   0  0  0  0  0  0  0  0  0  0  0  0
    1.3798    2.5131    0.8319 C   0  0  0  0  0  0  0  0  0  0  0  0
    3.2134    0.7536   -0.1531 C   0  0  0  0  0  0  0  0  0  0  0  0
    3.9217   -0.2547   -0.6949 N   0  0  0  0  0  0  0  0  0  0  0  0
    0.7530   -3.5832   -0.0192 O   0  0  0  0  0  0  0  0  0  0  0  0
    1.8866    0.5040   -0.2411 C   0  0  0  0  0  0  0  0  0  0  0  0
   -2.2646    1.2603    0.0724 O   0  0  0  0  0  0  0  0  0  0  0  0
   -2.1226   -0.0540    0.5628 C   0  0  0  0  0  0  0  0  0  0  0  0
   -1.8330   -3.4827   -0.8188 O   0  0  0  0  0  0  0  0  0  0  0  0
   -1.7643   -1.0163   -0.5950 C   0  0  1  0  0  0  0  0  0  0  0  0
   -2.9527   -1.0799   -1.5776 C   0  0  0  0  0  0  0  0  0  0  0  0
  1 10  1  0
  1 23  1  0
  2  9  1  0
  2 10  1  0
  2 18  1  6
  3 14  1  0
  3 17  2  0
  4  5  1  0
  4 12  1  0
  4 16  2  0
  6 11  1  0
  7 11  1  0
  8 15  1  0
  8 19  2  0
  9 22  1  6
  9 23  1  0
 10 14  1  1
 11 13  2  0
 11 20  1  0
 12 15  2  0
 14 19  1  0
 16 17  1  0
 16 19  1  0
 20 21  1  0
 21 23  1  0
 23 24  1  6
M  END
