
     RDKit          3D

 23 25  0  0  0  0  0  0  0  0999 V2000
   -1.4749   -0.2437   -1.4589 C   0  0  0  0  0  0  0  0  0  0  0  0
   -1.5955   -2.7676   -1.4413 C   0  0  0  0  0  0  0  0  0  0  0  0
    3.0175    0.8403    1.5818 C   0  0  0  0  0  0  0  0  0  0  0  0
   -2.1554    1.1532   -4.1612 O   0  0  0  0  0  0  0  0  0  0  0  0
    1.3923    1.0977   -0.1304 N   0  0  0  0  0  0  0  0  0  0  0  0
   -1.0710   -1.6137    2.9471 O   0  0  0  0  0  0  0  0  0  0  0  0
    4.7344    2.5654    1.9566 N   0  0  0  0  0  0  0  0  0  0  0  0
    3.6029    2.0571    1.2499 C   0  0  0  0  0  0  0  0  0  0  0  0
    2.4061   -1.0070    2.4124 C   0  0  0  0  0  0  0  0  0  0  0  0
   -0.8818   -1.0449    1.6784 C   0  0  2  0  0  0  0  0  0  0  0  0
   -1.1984   -1.5194   -0.6339 C   0  0  2  0  0  0  0  0  0  0  0  0
    1.5424   -0.7799    1.3892 N   0  0  0  0  0  0  0  0  0  0  0  0
   -1.9469   -1.4748    0.7112 C   0  0  0  0  0  0  0  0  0  0  0  0
    1.9601    2.2945   -0.4676 C   0  0  0  0  0  0  0  0  0  0  0  0
    0.1928   -1.5797   -0.3745 O   0  0  0  0  0  0  0  0  0  0  0  0
   -3.0792    1.2341   -2.7439 P   0  0  0  0  0  0  0  0  0  0  0  0
    3.3402   -0.0268    2.5599 N   0  0  0  0  0  0  0  0  0  0  0  0
   -2.6497    2.6099   -1.8536 O   0  0  0  0  0  0  0  0  0  0  0  0
    3.0525    2.7638    0.2174 N   0  0  0  0  0  0  0  0  0  0  0  0
    1.9436    0.3970    0.8896 C   0  0  0  0  0  0  0  0  0  0  0  0
    0.3757   -1.5856    1.0238 C   0  0  2  0  0  0  0  0  0  0  0  0
   -4.5416    1.3278   -3.1139 O   0  0  0  0  0  0  0  0  0  0  0  0
   -2.8382   -0.1719   -1.8103 O   0  0  0  0  0  0  0  0  0  0  0  0
  1 11  1  0
  1 23  1  0
 11  2  1  6
  3  8  2  0
  3 17  1  0
  3 20  1  0
  4 16  1  0
  5 14  1  0
  5 20  2  0
 10  6  1  1
  7  8  1  0
  8 19  1  0
  9 12  1  0
  9 17  2  0
 10 13  1  0
 10 21  1  0
 11 13  1  0
 11 15  1  0
 12 20  1  0
 21 12  1  6
 14 19  2  0
 15 21  1  0
 16 18  1  0
 16 22  2  0
 16 23  1  0
M  END
