
     RDKit          3D

 23 25  0  0  0  0  0  0  0  0999 V2000
   -3.0046    0.5680   -1.2378 C   0  0  0  0  0  0  0  0  0  0  0  0
    5.2329    1.3360   -1.0891 O   0  0  0  0  0  0  0  0  0  0  0  0
    3.8108    2.2183   -0.8315 P   0  0  0  0  0  0  0  0  0  0  0  0
   -4.3224    0.4675   -1.6691 C   0  0  0  0  0  0  0  0  0  0  0  0
   -1.9871    1.2845   -1.7520 N   0  0  0  0  0  0  0  0  0  0  0  0
   -1.2916    0.0936    0.0561 N   0  0  0  0  0  0  0  0  0  0  0  0
    1.5434   -1.8637    1.1314 C   0  0  1  0  0  0  0  0  0  0  0  0
    0.1752   -1.8290    0.4922 C   0  0  1  0  0  0  0  0  0  0  0  0
   -2.5889   -0.1466   -0.1676 C   0  0  0  0  0  0  0  0  0  0  0  0
    2.9628    2.1819   -2.0831 O   0  0  0  0  0  0  0  0  0  0  0  0
   -3.4072   -0.9812    0.5181 N   0  0  0  0  0  0  0  0  0  0  0  0
    0.6276    0.3385    1.4051 O   0  0  0  0  0  0  0  0  0  0  0  0
    2.9357    1.5702    0.4814 O   0  0  0  0  0  0  0  0  0  0  0  0
   -0.6096   -2.9391    0.8434 O   0  0  0  0  0  0  0  0  0  0  0  0
    1.8456   -0.3780    1.3591 C   0  0  2  0  0  0  0  0  0  0  0  0
   -4.8032    1.1995   -2.7966 N   0  0  0  0  0  0  0  0  0  0  0  0
   -0.9483    0.9610   -0.9328 C   0  0  0  0  0  0  0  0  0  0  0  0
    2.7282    0.1975    0.2442 C   0  0  0  0  0  0  0  0  0  0  0  0
    1.5425   -2.5768    2.3478 O   0  0  0  0  0  0  0  0  0  0  0  0
   -4.7062   -1.0860    0.1045 C   0  0  0  0  0  0  0  0  0  0  0  0
    4.2103    3.8255   -0.4868 O   0  0  0  0  0  0  0  0  0  0  0  0
   -5.1531   -0.3680   -0.9762 N   0  0  0  0  0  0  0  0  0  0  0  0
   -0.4186   -0.5403    1.0456 C   0  0  1  0  0  0  0  0  0  0  0  0
  1  4  2  0
  1  5  1  0
  1  9  1  0
  2  3  1  0
  3 10  2  0
  3 13  1  0
  3 21  1  0
  4 16  1  0
  4 22  1  0
  5 17  2  0
  6  9  1  0
  6 17  1  0
 23  6  1  6
  7  8  1  0
  7 15  1  0
  7 19  1  1
  8 14  1  1
  8 23  1  0
  9 11  2  0
 11 20  1  0
 12 15  1  0
 12 23  1  0
 13 18  1  0
 15 18  1  6
 20 22  2  0
M  END
