
     RDKit          3D

 27 29  0  0  0  0  0  0  0  0999 V2000
   -1.7007   -3.0339    2.6607 O   0  0  0  0  0  0  0  0  0  0  0  0
    3.0875    0.8785    1.3165 N   0  0  0  0  0  0  0  0  0  0  0  0
    0.8797   -2.8540   -0.3347 O   0  0  0  0  0  0  0  0  0  0  0  0
    4.7242    0.7703   -0.5373 C   0  0  0  0  0  0  0  0  0  0  0  0
   -1.0651    3.6911   -1.1396 O   0  0  0  0  0  0  0  0  0  0  0  0
   -2.7910    1.7045    0.0265 C   0  0  0  0  0  0  0  0  0  0  0  0
    2.4624    0.0565   -0.6469 C   0  0  0  0  0  0  0  0  0  0  0  0
    1.7852    0.4803    1.3193 C   0  0  0  0  0  0  0  0  0  0  0  0
    3.8130   -0.1703   -2.5350 C   0  0  0  0  0  0  0  0  0  0  0  0
   -0.9459    0.2118    0.3859 O   0  0  0  0  0  0  0  0  0  0  0  0
    1.3717   -0.0208    0.1254 N   0  0  0  0  0  0  0  0  0  0  0  0
    0.0627   -0.5877   -0.2074 C   0  0  1  0  0  0  0  0  0  0  0  0
   -0.0363   -2.0244    0.3387 C   0  0  1  0  0  0  0  0  0  0  0  0
   -2.9827   -0.8623   -0.9888 P   0  0  1  0  0  0  0  0  0  0  0  0
   -1.9301    0.5798   -0.5577 C   0  0  1  0  0  0  0  0  0  0  0  0
   -2.1344   -2.3573   -0.9588 O   0  0  0  0  0  0  0  0  0  0  0  0
   -4.1905   -0.9300   -0.0797 O   0  0  0  0  0  0  0  0  0  0  0  0
    5.8277    1.3338    0.1718 N   0  0  0  0  0  0  0  0  0  0  0  0
    3.4810    0.5966    0.0601 C   0  0  0  0  0  0  0  0  0  0  0  0
   -2.7134    4.3178    0.7949 O   0  0  0  0  0  0  0  0  0  0  0  0
    2.5951   -0.3375   -1.9367 N   0  0  0  0  0  0  0  0  0  0  0  0
   -2.3073   -2.4114    1.5588 C   0  0  0  0  0  0  0  0  0  0  0  0
   -1.8050    3.2127    0.3058 P   0  0  0  0  0  0  0  0  0  0  0  0
    4.8613    0.3776   -1.8393 N   0  0  0  0  0  0  0  0  0  0  0  0
   -0.6178    2.9092    1.4726 O   0  0  0  0  0  0  0  0  0  0  0  0
   -1.4697   -2.6341    0.2718 C   0  0  2  0  0  0  0  0  0  0  0  0
   -3.5359   -0.6261   -2.5708 O   0  0  0  0  0  0  0  0  0  0  0  0
  1 22  1  0
  2  8  2  0
  2 19  1  0
 13  3  1  6
  4 18  1  0
  4 19  2  0
  4 24  1  0
  5 23  1  0
 15  6  1  1
  6 23  1  0
  7 11  1  0
  7 19  1  0
  7 21  2  0
  8 11  1  0
  9 21  1  0
  9 24  2  0
 10 12  1  0
 10 15  1  0
 12 11  1  1
 12 13  1  0
 13 26  1  0
 14 15  1  0
 14 16  1  0
 14 17  2  0
 14 27  1  6
 16 26  1  0
 20 23  2  0
 26 22  1  1
 23 25  1  0
M  END
