
     RDKit          3D

 17 18  0  0  0  0  0  0  0  0999 V2000
    2.8767    0.7654   -0.5972 C   0  0  0  0  0  0  0  0  0  0  0  0
   -2.0534    0.8235   -2.2051 C   0  0  0  0  0  0  0  0  0  0  0  0
   -3.0470    0.6722   -0.0364 C   0  0  0  0  0  0  0  0  0  0  0  0
   -0.8381   -0.1023   -0.4432 C   0  0  0  0  0  0  0  0  0  0  0  0
    0.1852   -0.6740    0.2058 N   0  0  0  0  0  0  0  0  0  0  0  0
    2.1255    1.8474    0.1857 C   0  0  0  0  0  0  0  0  0  0  0  0
   -0.8991    0.2496   -1.7503 N   0  0  0  0  0  0  0  0  0  0  0  0
   -3.1105    1.0293   -1.3549 N   0  0  0  0  0  0  0  0  0  0  0  0
    0.8424   -3.4223   -0.2070 O   0  0  0  0  0  0  0  0  0  0  0  0
    3.0061    2.8668    0.5726 O   0  0  0  0  0  0  0  0  0  0  0  0
   -1.5496   -0.3622    1.6417 N   0  0  0  0  0  0  0  0  0  0  0  0
    1.3109   -2.4299   -1.0780 C   0  0  0  0  0  0  0  0  0  0  0  0
   -0.2813   -0.8284    1.4721 C   0  0  0  0  0  0  0  0  0  0  0  0
    1.4810   -1.1097   -0.3243 C   0  0  1  0  0  0  0  0  0  0  0  0
   -4.2121    0.8964    0.8734 C   0  0  0  0  0  0  0  0  0  0  0  0
   -1.8671    0.0890    0.4132 C   0  0  0  0  0  0  0  0  0  0  0  0
    1.9848   -0.1368   -1.2273 O   0  0  0  0  0  0  0  0  0  0  0  0
  1  6  1  0
  1 17  1  0
  2  7  1  0
  2  8  2  0
  3  8  1  0
  3 15  1  0
  3 16  2  0
  4  5  1  0
  4  7  2  0
  4 16  1  0
  5 13  1  0
  5 14  1  0
  6 10  1  0
  9 12  1  0
 11 13  2  0
 11 16  1  0
 14 12  1  6
 14 17  1  0
M  END
