
     RDKit          3D

 12 12  0  0  0  0  0  0  0  0999 V2000
    0.3626   12.4884    2.2777 C   0  0  0  0  0  0  0  0  0  0  0  0
   -0.1851   12.2570   -0.0975 C   0  0  0  0  0  0  0  0  0  0  0  0
   -2.0373   11.5560   -1.4740 O   0  0  0  0  0  0  0  0  0  0  0  0
   -0.2656   11.7785    1.2604 C   0  0  0  0  0  0  0  0  0  0  0  0
   -0.8339    9.4717    0.9370 N   0  0  0  0  0  0  0  0  0  0  0  0
   -0.0470   11.0401   -2.1740 O   0  0  0  0  0  0  0  0  0  0  0  0
    1.1083   14.1133    0.7142 C   0  0  0  0  0  0  0  0  0  0  0  0
   -0.9335   10.5809    1.6862 C   0  0  0  0  0  0  0  0  0  0  0  0
   -1.5422   10.5800    2.7420 O   0  0  0  0  0  0  0  0  0  0  0  0
    1.0492   13.6351    2.0056 C   0  0  0  0  0  0  0  0  0  0  0  0
    0.5114   13.4282   -0.3170 C   0  0  0  0  0  0  0  0  0  0  0  0
   -0.8082   11.5946   -1.3100 C   0  0  0  0  0  0  0  0  0  0  0  0
  1  4  2  0
  1 10  1  0
  2  4  1  0
  2 11  2  0
  2 12  1  0
  3 12  2  0
  4  8  1  0
  5  8  1  0
  6 12  1  0
  7 10  2  0
  7 11  1  0
  8  9  2  0
M  END
$$$$
