
     RDKit          3D

 12 12  0  0  0  0  0  0  0  0999 V2000
   -0.7597   10.9718    2.9194 C   0  0  0  0  0  0  0  0  0  0  0  0
    0.5690   12.9682    3.1808 C   0  0  0  0  0  0  0  0  0  0  0  0
   -0.0466   11.8641   -2.5789 N   0  0  0  0  0  0  0  0  0  0  0  0
   -0.1018   12.4066   -0.4397 N   0  0  0  0  0  0  0  0  0  0  0  0
    0.5725   13.1121    1.7940 C   0  0  0  0  0  0  0  0  0  0  0  0
   -0.0874   12.2313    0.9486 C   0  0  0  0  0  0  0  0  0  0  0  0
    0.7871   12.9829   -2.8008 C   0  0  0  0  0  0  0  0  0  0  0  0
   -0.4043   11.0906   -3.7280 C   0  0  0  0  0  0  0  0  0  0  0  0
   -0.4924   11.5738   -1.3299 C   0  0  0  0  0  0  0  0  0  0  0  0
   -1.4683   10.2291   -1.0670 S   0  0  0  0  0  0  0  0  0  0  0  0
   -0.1095   11.8716    3.7054 C   0  0  0  0  0  0  0  0  0  0  0  0
   -0.7345   11.1626    1.5308 C   0  0  0  0  0  0  0  0  0  0  0  0
  1 11  2  0
  1 12  1  0
  2  5  2  0
  2 11  1  0
  3  7  1  0
  3  8  1  0
  3  9  1  0
  4  6  1  0
  4  9  1  0
  5  6  1  0
  6 12  2  0
  9 10  2  0
M  END
$$$$
