
     RDKit          3D

 12 12  0  0  0  0  0  0  0  0999 V2000
   -0.4016   10.3844    3.8440 N   0  0  0  0  0  0  0  0  0  0  0  0
    0.6656   13.4722   -2.1228 C   0  0  0  0  0  0  0  0  0  0  0  0
    0.3074   12.3914   -2.9907 C   0  0  0  0  0  0  0  0  0  0  0  0
   -0.5945   12.0456    1.1266 N   0  0  0  0  0  0  0  0  0  0  0  0
   -0.6358   11.1071   -1.0448 C   0  0  0  0  0  0  0  0  0  0  0  0
    0.3850   13.4436   -0.7314 C   0  0  0  0  0  0  0  0  0  0  0  0
   -0.2627   12.2796   -0.2198 C   0  0  0  0  0  0  0  0  0  0  0  0
   -0.3304   11.1974   -2.4882 C   0  0  0  0  0  0  0  0  0  0  0  0
    0.2800   12.2505    2.2156 C   0  0  0  0  0  0  0  0  0  0  0  0
    1.4052   12.6766    2.1552 O   0  0  0  0  0  0  0  0  0  0  0  0
   -1.4070    9.8095   -0.4869 C   0  0  0  0  0  0  0  0  0  0  0  0
   -0.4164   11.7577    3.4858 C   0  0  0  0  0  0  0  0  0  0  0  0
  1 12  1  0
  2  3  2  0
  2  6  1  0
  3  8  1  0
  4  7  1  0
  4  9  1  0
  5  7  1  0
  5  8  2  0
  5 11  1  0
  6  7  2  0
  9 10  2  0
  9 12  1  0
M  END
$$$$
