
     RDKit          3D

 14 15  0  0  0  0  0  0  0  0999 V2000
    0.8271   13.6802   -0.9254 O   0  0  0  0  0  0  0  0  0  0  0  0
   -0.1528   11.9463    3.1383 C   0  0  0  0  0  0  0  0  0  0  0  0
    0.9838   13.7058    1.8855 C   0  0  0  0  0  0  0  0  0  0  0  0
   -0.5365   11.2020    4.1167 N   0  0  0  0  0  0  0  0  0  0  0  0
    0.1528   12.7298    1.0786 C   0  0  0  0  0  0  0  0  0  0  0  0
   -0.3865   11.6596   -1.0672 C   0  0  0  0  0  0  0  0  0  0  0  0
   -1.8034    9.8844    1.6424 O   0  0  0  0  0  0  0  0  0  0  0  0
    0.2461   12.7891   -0.3441 C   0  0  0  0  0  0  0  0  0  0  0  0
   -1.1663   10.6504   -0.3776 N   0  0  0  0  0  0  0  0  0  0  0  0
   -0.4527   11.7171    1.7613 C   0  0  0  0  0  0  0  0  0  0  0  0
    0.6809   13.1846    3.3114 C   0  0  0  0  0  0  0  0  0  0  0  0
   -0.2042   11.5236   -2.4853 C   0  0  0  0  0  0  0  0  0  0  0  0
   -1.0347   10.9835   -3.1289 O   0  0  0  0  0  0  0  0  0  0  0  0
   -1.1887   10.6928    1.0294 C   0  0  0  0  0  0  0  0  0  0  0  0
  1  8  2  0
  2  4  1  0
  2 10  2  0
  2 11  1  0
  3  5  1  0
  3 11  1  0
  5  8  1  0
  5 10  1  0
  6  8  1  0
  6  9  2  0
  6 12  1  0
  7 14  2  0
  9 14  1  0
 10 14  1  0
 12 13  2  0
M  END
$$$$
