
     RDKit          3D

 22 23  0  0  0  0  0  0  0  0999 V2000
   -0.2140   12.2403    2.9474 C   0  0  0  0  0  0  0  0  0  0  0  0
   -0.9866    7.3004    5.6400 C   0  0  0  0  0  0  0  0  0  0  0  0
   -1.3219   10.5018   -0.7840 N   0  0  0  0  0  0  0  0  0  0  0  0
    0.7237   12.6787   -3.2659 C   0  0  0  0  0  0  0  0  0  0  0  0
   -0.7318   11.0724   -1.9796 C   0  0  0  0  0  0  0  0  0  0  0  0
   -1.9180    8.9492    1.9576 C   0  0  0  0  0  0  0  0  0  0  0  0
   -1.4584   10.3741    1.5696 C   0  0  0  0  0  0  0  0  0  0  0  0
   -0.0472   12.2669    0.4391 C   0  0  0  0  0  0  0  0  0  0  0  0
   -0.0273   10.5161    3.0021 C   0  0  0  0  0  0  0  0  0  0  0  0
   -1.7316    8.7889    3.2808 C   0  0  0  0  0  0  0  0  0  0  0  0
   -2.6115    5.8148    4.8019 O   0  0  0  0  0  0  0  0  0  0  0  0
   -3.3218    8.1319    1.5326 C   0  0  0  0  0  0  0  0  0  0  0  0
   -2.1935    7.0328    4.8120 C   0  0  0  0  0  0  0  0  0  0  0  0
    1.0118   14.0886    1.7977 C   0  0  0  0  0  0  0  0  0  0  0  0
   -0.5728   11.0101   -4.4345 C   0  0  0  0  0  0  0  0  0  0  0  0
    0.3704   12.0453   -4.4573 C   0  0  0  0  0  0  0  0  0  0  0  0
    0.2045   12.1706   -2.0177 C   0  0  0  0  0  0  0  0  0  0  0  0
    0.5099   12.7958   -0.6918 C   0  0  0  0  0  0  0  0  0  0  0  0
   -0.9455   11.0519    0.2924 C   0  0  0  0  0  0  0  0  0  0  0  0
   -1.1206   10.5088   -3.2299 C   0  0  0  0  0  0  0  0  0  0  0  0
    0.2615   12.8714    1.7056 C   0  0  0  0  0  0  0  0  0  0  0  0
   -2.7037    7.9830    4.0208 O   0  0  0  0  0  0  0  0  0  0  0  0
  1  9  1  0
  1 21  1  0
  2 13  1  0
  3  5  1  0
  3 19  2  0
  4 16  1  0
  4 17  2  0
  5 17  1  0
  5 20  2  0
  6  7  1  0
  6 10  1  0
  6 12  1  0
  7 19  1  0
  8 18  1  0
  8 19  1  0
  8 21  2  3
 10 22  1  0
 11 13  2  0
 13 22  1  0
 14 21  1  0
 15 16  2  0
 15 20  1  0
 17 18  1  0
M  END
$$$$
