
     RDKit          3D

 13 14  0  0  0  0  0  0  0  0999 V2000
    0.4888   13.5230   -0.7224 C   0  0  0  0  0  0  0  0  0  0  0  0
   -0.3095   11.2683    3.9100 N   0  0  0  0  0  0  0  0  0  0  0  0
   -0.6706   11.6869    0.2442 C   0  0  0  0  0  0  0  0  0  0  0  0
   -0.3010   12.3835   -0.9003 C   0  0  0  0  0  0  0  0  0  0  0  0
   -1.3456   10.1257    1.7969 N   0  0  0  0  0  0  0  0  0  0  0  0
   -1.8981    9.8091   -0.5144 O   0  0  0  0  0  0  0  0  0  0  0  0
    0.9711   13.9611    0.5514 C   0  0  0  0  0  0  0  0  0  0  0  0
    0.6290   13.2127    1.6953 C   0  0  0  0  0  0  0  0  0  0  0  0
   -1.3691   10.4239    0.4345 C   0  0  0  0  0  0  0  0  0  0  0  0
   -0.8102   11.9733   -2.1120 O   0  0  0  0  0  0  0  0  0  0  0  0
   -0.6098   11.1316    2.4972 C   0  0  0  0  0  0  0  0  0  0  0  0
   -0.1496   12.0717    1.5135 C   0  0  0  0  0  0  0  0  0  0  0  0
    0.0610   11.5929   -3.1591 C   0  0  0  0  0  0  0  0  0  0  0  0
  1  4  1  0
  1  7  2  0
  2 11  1  0
  3  4  2  0
  3  9  1  0
  3 12  1  0
  4 10  1  0
  5  9  1  0
  5 11  2  0
  6  9  2  0
  7  8  1  0
  8 12  2  0
 10 13  1  0
 11 12  1  0
M  END
$$$$
