
     RDKit          3D

 11 11  0  0  0  0  0  0  0  0999 V2000
  -21.8346  -33.5496   37.4780 N   0  0  0  0  0  0  0  0  0  0  0  0
  -22.8266  -33.4720   36.4986 C   0  0  0  0  0  0  0  0  0  0  0  0
  -23.9343  -34.3850   41.7614 C   0  0  0  0  0  0  0  0  0  0  0  0
  -24.5363  -33.7490   38.2112 C   0  0  0  0  0  0  0  0  0  0  0  0
  -23.5015  -33.8286   39.1675 C   0  0  0  0  0  0  0  0  0  0  0  0
  -22.1805  -33.7250   38.7672 C   0  0  0  0  0  0  0  0  0  0  0  0
  -23.8908  -34.7023   42.9744 O   0  0  0  0  0  0  0  0  0  0  0  0
  -24.1897  -33.5658   36.8588 C   0  0  0  0  0  0  0  0  0  0  0  0
  -22.4210  -33.3186   35.0757 C   0  0  0  0  0  0  0  0  0  0  0  0
  -25.1746  -33.4540   35.8878 O   0  0  0  0  0  0  0  0  0  0  0  0
  -23.7859  -34.0891   40.5943 C   0  0  0  0  0  0  0  0  0  0  0  0
  1  2  1  0
  1  6  2  0
  2  8  2  0
  2  9  1  0
  3  7  1  0
  3 11  1  0
  4  5  2  0
  4  8  1  0
  5  6  1  0
  5 11  1  0
  8 10  1  0
M  END
$$$$
