
     RDKit          3D

 20 22  0  0  0  0  0  0  0  0999 V2000
    2.6603    0.0165   -1.9126 F   0  0  0  0  0  0  0  0  0  0  0  0
    3.3067    1.6003    1.3120 C   0  0  0  0  0  0  0  0  0  0  0  0
   -3.0037    1.3157    0.0107 N   0  0  0  0  0  0  0  0  0  0  0  0
   -1.9917   -1.4780    0.0283 C   0  0  0  0  0  0  0  0  0  0  0  0
   -0.0178    0.3135    2.0820 F   0  0  0  0  0  0  0  0  0  0  0  0
   -1.1554   -2.6702   -0.4487 C   0  0  1  0  0  0  0  0  0  0  0  0
    2.1263    1.3123    1.9975 C   0  0  0  0  0  0  0  0  0  0  0  0
   -1.0606    2.0779   -0.8295 N   0  0  0  0  0  0  0  0  0  0  0  0
   -1.7409    1.0136   -0.3617 C   0  0  0  0  0  0  0  0  0  0  0  0
    0.3011   -2.1695   -0.4831 C   0  0  1  0  0  0  0  0  0  0  0  0
    1.2517    0.1624    0.0313 C   0  0  0  0  0  0  0  0  0  0  0  0
    1.1040    0.5926    1.3712 C   0  0  0  0  0  0  0  0  0  0  0  0
   -1.3315   -3.8288    0.3321 O   0  0  0  0  0  0  0  0  0  0  0  0
   -1.1806   -0.3050   -0.2609 N   0  0  0  0  0  0  0  0  0  0  0  0
   -3.0629    2.6350   -0.2568 C   0  0  0  0  0  0  0  0  0  0  0  0
   -1.9034    3.0905   -0.7582 N   0  0  0  0  0  0  0  0  0  0  0  0
    3.4746    1.1631   -0.0020 C   0  0  0  0  0  0  0  0  0  0  0  0
    2.4599    0.4432   -0.6396 C   0  0  0  0  0  0  0  0  0  0  0  0
    0.1746   -0.6442   -0.6871 C   0  0  2  0  0  0  0  0  0  0  0  0
    1.0046   -2.5071    0.6908 O   0  0  0  0  0  0  0  0  0  0  0  0
  1 18  1  0
  2  7  1  0
  2 17  2  0
  3  9  1  0
  3 15  2  0
  4  6  1  0
  4 14  1  0
  5 12  1  0
  6 10  1  0
  6 13  1  1
  7 12  2  0
  8  9  2  0
  8 16  1  0
  9 14  1  0
 10 19  1  0
 10 20  1  1
 11 12  1  0
 11 18  2  0
 19 11  1  1
 14 19  1  0
 15 16  1  0
 17 18  1  0
M  END
