
     RDKit          3D

 20 23  0  0  0  0  0  0  0  0999 V2000
   19.7304  -51.1190   51.3176 C   0  0  0  0  0  0  0  0  0  0  0  0
   24.7281  -47.9086   53.3332 C   0  0  0  0  0  0  0  0  0  0  0  0
   20.0650  -52.4737   51.3488 C   0  0  0  0  0  0  0  0  0  0  0  0
   24.2553  -51.2859   52.9951 C   0  0  0  0  0  0  0  0  0  0  0  0
   24.0231  -48.7390   52.2682 C   0  0  1  0  0  0  0  0  0  0  0  0
   21.9270  -50.4971   52.0847 C   0  0  0  0  0  0  0  0  0  0  0  0
   25.3336  -51.3879   53.5423 O   0  0  0  0  0  0  0  0  0  0  0  0
   25.6254  -48.4193   53.9809 O   0  0  0  0  0  0  0  0  0  0  0  0
   24.3311  -46.7882   53.4432 O   0  0  0  0  0  0  0  0  0  0  0  0
   23.3695  -52.2932   52.7472 N   0  0  0  0  0  0  0  0  0  0  0  0
   20.6485  -50.0911   51.6257 C   0  0  0  0  0  0  0  0  0  0  0  0
   23.5642  -50.3968   52.4977 C   0  0  2  0  0  0  0  0  0  0  0  0
   23.5363  -53.6150   52.7544 C   0  0  1  0  0  0  0  0  0  0  0  0
   22.2009  -48.6628   53.7191 O   0  0  0  0  0  0  0  0  0  0  0  0
   24.6696  -54.5226   52.5368 C   0  0  0  0  0  0  0  0  0  0  0  0
   24.0889  -54.2913   53.9300 C   0  0  2  0  0  0  0  0  0  0  0  0
   21.2561  -52.8707   51.8447 C   0  0  0  0  0  0  0  0  0  0  0  0
   23.4799  -55.4685   54.2927 O   0  0  0  0  0  0  0  0  0  0  0  0
   22.6484  -49.1464   52.5824 C   0  0  2  0  0  0  0  0  0  0  0  0
   22.1086  -51.9018   52.3160 C   0  0  0  0  0  0  0  0  0  0  0  0
  1  3  2  0
  1 11  1  0
  5  2  1  1
  2  8  1  0
  2  9  2  0
  3 17  1  0
  4  7  2  0
  4 10  1  0
 12  4  1  1
  5 12  1  0
  5 19  1  0
  6 11  2  0
  6 19  1  0
  6 20  1  0
 13 10  1  1
 10 20  1  0
 12 19  1  0
 13 15  1  0
 13 16  1  0
 19 14  1  1
 15 16  1  0
 16 18  1  6
 17 20  2  0
M  END
