
     RDKit          3D

 16 18  0  0  0  0  0  0  0  0999 V2000
    2.7165   -0.0427   -0.6292 C   0  0  0  0  0  0  0  0  0  0  0  0
   -0.7310   -2.4170    0.3347 C   0  0  0  0  0  0  0  0  0  0  0  0
   -3.1728    0.6194   -1.8810 C   0  0  0  0  0  0  0  0  0  0  0  0
    2.6398    0.6399    0.5629 C   0  0  0  0  0  0  0  0  0  0  0  0
   -0.5601   -0.9054    0.4310 C   0  0  0  0  0  0  0  0  0  0  0  0
   -1.7012   -0.0653   -0.0730 C   0  0  0  0  0  0  0  0  0  0  0  0
   -2.1388   -0.1909   -1.4015 C   0  0  0  0  0  0  0  0  0  0  0  0
   -3.3200    1.7129    0.2742 C   0  0  0  0  0  0  0  0  0  0  0  0
    3.8629   -0.0815   -1.5838 C   0  0  0  0  0  0  0  0  0  0  0  0
    3.6584    1.4612    1.1318 N   0  0  0  0  0  0  0  0  0  0  0  0
   -0.8156   -1.7276    1.6888 C   0  0  0  0  0  0  0  0  0  0  0  0
    1.4415    0.4295    1.1369 N   0  0  0  0  0  0  0  0  0  0  0  0
   -3.7651    1.5684   -1.0429 C   0  0  0  0  0  0  0  0  0  0  0  0
   -2.2863    0.9045    0.7573 C   0  0  0  0  0  0  0  0  0  0  0  0
    0.8332   -0.3924    0.2518 C   0  0  0  0  0  0  0  0  0  0  0  0
    1.5805   -0.6711   -0.7962 O   0  0  0  0  0  0  0  0  0  0  0  0
  1  4  2  0
  1  9  1  0
  1 16  1  0
  2  5  1  0
  2 11  1  0
  3  7  1  0
  3 13  2  0
  4 10  1  0
  4 12  1  0
  5  6  1  0
  5 11  1  0
  5 15  1  0
  6  7  2  0
  6 14  1  0
  8 13  1  0
  8 14  2  0
 12 15  2  0
 15 16  1  0
M  END
