
     RDKit          3D

 16 18  0  0  0  0  0  0  0  0999 V2000
    1.2067   -1.1086   -0.2610 C   0  0  0  0  0  0  0  0  0  0  0  0
   -0.6087    0.4962    0.1230 C   0  0  0  0  0  0  0  0  0  0  0  0
    0.7829    0.2298   -0.0385 C   0  0  0  0  0  0  0  0  0  0  0  0
   -1.1218    1.7969    0.3482 C   0  0  0  0  0  0  0  0  0  0  0  0
    0.6078   -3.3317   -0.5136 O   0  0  0  0  0  0  0  0  0  0  0  0
   -3.3804    0.9460    0.4334 C   0  0  0  0  0  0  0  0  0  0  0  0
    2.5771   -1.3964   -0.4235 C   0  0  0  0  0  0  0  0  0  0  0  0
   -2.9145   -0.3500    0.2130 C   0  0  0  0  0  0  0  0  0  0  0  0
   -2.4904    2.0108    0.5004 C   0  0  0  0  0  0  0  0  0  0  0  0
    3.5258   -0.3790   -0.3683 C   0  0  0  0  0  0  0  0  0  0  0  0
    3.1254    0.9348   -0.1514 C   0  0  0  0  0  0  0  0  0  0  0  0
    0.2517   -2.1365   -0.3170 C   0  0  0  0  0  0  0  0  0  0  0  0
   -1.5278   -0.5906    0.0556 C   0  0  0  0  0  0  0  0  0  0  0  0
    1.7738    1.2430    0.0123 C   0  0  0  0  0  0  0  0  0  0  0  0
   -4.1113   -1.6417    0.1423 Cl  0  0  0  0  0  0  0  0  0  0  0  0
   -1.0676   -1.8580   -0.1603 N   0  0  0  0  0  0  0  0  0  0  0  0
  1  3  1  0
  1  7  2  0
  1 12  1  0
  2  3  1  0
  2  4  2  0
  2 13  1  0
  3 14  2  0
  4  9  1  0
  5 12  2  0
  6  8  1  0
  6  9  2  0
  7 10  1  0
  8 13  2  0
  8 15  1  0
 10 11  2  0
 11 14  1  0
 12 16  1  0
 13 16  1  0
M  END
