
     RDKit          3D

 16 18  0  0  0  0  0  0  0  0999 V2000
   -0.7384    2.2493   -0.2610 C   0  0  0  0  0  0  0  0  0  0  0  0
    2.6302   -1.3942    0.2947 C   0  0  0  0  0  0  0  0  0  0  0  0
    0.5738    2.1594   -0.1005 O   0  0  0  0  0  0  0  0  0  0  0  0
   -0.9050   -0.1791   -0.1786 C   0  0  0  0  0  0  0  0  0  0  0  0
   -1.2595    3.3919   -0.3713 O   0  0  0  0  0  0  0  0  0  0  0  0
   -1.5320    1.0892   -0.3069 C   0  0  0  0  0  0  0  0  0  0  0  0
   -3.0997   -1.2341   -0.3963 C   0  0  0  0  0  0  0  0  0  0  0  0
   -2.9275    1.1718   -0.4770 C   0  0  0  0  0  0  0  0  0  0  0  0
   -1.7173   -1.3376   -0.2269 C   0  0  0  0  0  0  0  0  0  0  0  0
    4.6953   -0.1375    0.4884 O   0  0  0  0  0  0  0  0  0  0  0  0
    1.2130    1.0036    0.0245 C   0  0  0  0  0  0  0  0  0  0  0  0
   -3.7025    0.0147   -0.5209 C   0  0  0  0  0  0  0  0  0  0  0  0
    2.6023    1.0186    0.1898 C   0  0  0  0  0  0  0  0  0  0  0  0
    1.2426   -1.4256    0.1303 C   0  0  0  0  0  0  0  0  0  0  0  0
    0.5058   -0.2256   -0.0082 C   0  0  0  0  0  0  0  0  0  0  0  0
    3.3123   -0.1745    0.3248 C   0  0  0  0  0  0  0  0  0  0  0  0
  1  3  1  0
  1  5  2  0
  1  6  1  0
  2 14  1  0
  2 16  2  0
  3 11  1  0
  4  6  1  0
  4  9  2  0
  4 15  1  0
  6  8  2  0
  7  9  1  0
  7 12  2  0
  8 12  1  0
 10 16  1  0
 11 13  2  0
 11 15  1  0
 13 16  1  0
 14 15  2  0
M  END
