
     RDKit          3D

 10 10  0  0  0  0  0  0  0  0999 V2000
  -19.7952   17.3333  -26.6570 C   0  0  0  0  0  0  0  0  0  0  0  0
  -20.2485   16.2139  -27.7450 C   0  0  0  0  0  0  0  0  0  0  0  0
  -23.3407   18.1708  -27.0177 Cl  0  0  0  0  0  0  0  0  0  0  0  0
  -17.3796   17.2639  -25.3922 C   0  0  0  0  0  0  0  0  0  0  0  0
  -20.6827   16.6328  -29.2248 C   0  0  0  0  0  0  0  0  0  0  0  0
  -18.0311   17.4942  -26.7337 N   0  0  0  0  0  0  0  0  0  0  0  0
  -22.8021   15.9891  -30.6182 Cl  0  0  0  0  0  0  0  0  0  0  0  0
  -23.1676   17.8677  -28.7879 C   0  0  0  0  0  0  0  0  0  0  0  0
  -18.8269   15.7383  -27.7269 C   0  0  0  0  0  0  0  0  0  0  0  0
  -22.2406   16.6514  -29.4257 C   0  0  0  0  0  0  0  0  0  0  0  0
  1  2  1  0
  1  6  1  0
  2  5  1  0
  2  9  1  0
  3  8  1  0
  4  6  1  0
  5 10  1  0
  6  9  1  0
  7 10  1  0
  8 10  1  0
M  END
$$$$
