
     RDKit          3D

 18 19  0  0  0  0  0  0  0  0999 V2000
   -2.8516   -2.6495    0.5565 C   0  0  0  0  0  0  0  0  0  0  0  0
    4.1903    0.8348   -0.8384 P   0  0  0  0  0  0  0  0  0  0  0  0
    4.5023    1.7089   -2.2536 O   0  0  0  0  0  0  0  0  0  0  0  0
    0.0920   -0.2501    0.7551 C   0  0  0  0  0  0  0  0  0  0  0  0
   -2.2694    2.1648   -0.6130 C   0  0  0  0  0  0  0  0  0  0  0  0
    1.5428   -0.2648    1.1614 C   0  0  0  0  0  0  0  0  0  0  0  0
   -3.6019    2.2239   -1.0205 C   0  0  0  0  0  0  0  0  0  0  0  0
    4.0803    1.9079    0.4650 O   0  0  0  0  0  0  0  0  0  0  0  0
    2.3916   -0.9213    0.1533 N   0  0  0  0  0  0  0  0  0  0  0  0
   -0.6871   -1.4104    0.8475 C   0  0  0  0  0  0  0  0  0  0  0  0
    5.3177   -0.1423   -0.5916 O   0  0  0  0  0  0  0  0  0  0  0  0
   -3.9196   -0.0677   -0.4732 C   0  0  0  0  0  0  0  0  0  0  0  0
   -0.4578    0.8954    0.2729 N   0  0  0  0  0  0  0  0  0  0  0  0
   -2.0328   -1.3892    0.4479 C   0  0  0  0  0  0  0  0  0  0  0  0
   -2.5813   -0.1830   -0.0483 C   0  0  0  0  0  0  0  0  0  0  0  0
    2.6276   -0.0774   -1.0271 C   0  0  0  0  0  0  0  0  0  0  0  0
   -4.3889    1.1191   -0.9426 N   0  0  0  0  0  0  0  0  0  0  0  0
   -1.7547    0.9614   -0.1251 C   0  0  0  0  0  0  0  0  0  0  0  0
  1 14  1  0
  2  3  1  0
  2  8  1  0
  2 11  2  0
  2 16  1  0
  4  6  1  0
  4 10  2  0
  4 13  1  0
  5  7  2  0
  5 18  1  0
  6  9  1  0
  7 17  1  0
  9 16  1  0
 10 14  1  0
 12 15  1  0
 12 17  2  0
 13 18  2  0
 14 15  2  0
 15 18  1  0
M  END
