
     RDKit          3D

 22 24  0  0  0  0  0  0  0  0999 V2000
   27.7695   29.7896  -17.6766 C   0  0  0  0  0  0  0  0  0  0  0  0
   23.5793   31.7301  -12.0443 C   0  0  0  0  0  0  0  0  0  0  0  0
   26.2897   31.3474  -16.3343 N   0  0  0  0  0  0  0  0  0  0  0  0
   20.4788   28.5818   -9.9754 C   0  0  0  0  0  0  0  0  0  0  0  0
   24.1079   32.4531  -13.1194 C   0  0  0  0  0  0  0  0  0  0  0  0
   23.8045   32.0900  -14.4355 C   0  0  0  0  0  0  0  0  0  0  0  0
   20.8461   27.8481   -7.7658 O   0  0  0  0  0  0  0  0  0  0  0  0
   22.4209   30.2850  -13.5696 C   0  0  0  0  0  0  0  0  0  0  0  0
   20.9223   29.2706  -11.1045 C   0  0  0  0  0  0  0  0  0  0  0  0
   22.9467   31.0042  -14.6495 C   0  0  0  0  0  0  0  0  0  0  0  0
   27.0203   31.3015  -15.0936 C   0  0  0  0  0  0  0  0  0  0  0  0
   24.3766   32.8668  -15.6010 C   0  0  0  0  0  0  0  0  0  0  0  0
   25.1185   32.0212  -16.5829 C   0  0  0  0  0  0  0  0  0  0  0  0
   26.5998   30.6804  -17.4941 C   0  0  0  0  0  0  0  0  0  0  0  0
   24.7566   31.7895  -17.8290 N   0  0  0  0  0  0  0  0  0  0  0  0
   22.5198   29.1631   -8.9050 C   0  0  0  0  0  0  0  0  0  0  0  0
   22.7217   30.6326  -12.2412 C   0  0  0  0  0  0  0  0  0  0  0  0
   27.6243   28.6935  -16.7803 O   0  0  0  0  0  0  0  0  0  0  0  0
   22.9736   29.8402   -9.9854 N   0  0  0  0  0  0  0  0  0  0  0  0
   21.2925   28.5252   -8.8583 C   0  0  0  0  0  0  0  0  0  0  0  0
   22.1764   29.8862  -11.0871 C   0  0  0  0  0  0  0  0  0  0  0  0
   25.6783   30.9479  -18.3959 N   0  0  0  0  0  0  0  0  0  0  0  0
  1 14  1  0
  1 18  1  0
  2  5  2  0
  2 17  1  0
  3 11  1  0
  3 13  1  0
  3 14  1  0
  4  9  2  0
  4 20  1  0
  5  6  1  0
  6 10  2  0
  6 12  1  0
  7 20  1  0
  8 10  1  0
  8 17  2  0
  9 21  1  0
 12 13  1  0
 13 15  2  0
 14 22  2  0
 15 22  1  0
 16 19  1  0
 16 20  2  0
 17 21  1  0
 19 21  2  0
M  END
$$$$
