
     RDKit          3D

 21 23  0  0  0  0  0  0  0  0999 V2000
   -1.9668    0.8766    0.9109 C   0  0  0  0  0  0  0  0  0  0  0  0
    2.0154    1.1782    0.7481 C   0  0  0  0  0  0  0  0  0  0  0  0
   -0.7030    0.8535   -1.1577 C   0  0  0  0  0  0  0  0  0  0  0  0
    3.0443    2.1001    0.5360 C   0  0  0  0  0  0  0  0  0  0  0  0
   -2.6300    2.0335    0.4908 C   0  0  0  0  0  0  0  0  0  0  0  0
   -2.2786   -2.4905    0.7281 C   0  0  0  0  0  0  0  0  0  0  0  0
   -0.2907   -0.9382    0.5305 C   0  0  0  0  0  0  0  0  0  0  0  0
   -0.8640   -2.1280    0.8100 N   0  0  0  0  0  0  0  0  0  0  0  0
    3.3766   -0.5656   -0.2486 C   0  0  0  0  0  0  0  0  0  0  0  0
    1.2910   -2.4423    0.8744 N   0  0  0  0  0  0  0  0  0  0  0  0
   -1.0037    0.2760    0.0860 C   0  0  0  0  0  0  0  0  0  0  0  0
   -2.6833   -2.7299   -0.7218 C   0  0  0  0  0  0  0  0  0  0  0  0
    4.4020    0.3629   -0.4575 C   0  0  0  0  0  0  0  0  0  0  0  0
    2.1654   -0.1623    0.3469 C   0  0  0  0  0  0  0  0  0  0  0  0
    1.0804   -1.1439    0.5747 C   0  0  0  0  0  0  0  0  0  0  0  0
    4.2354    1.6937   -0.0684 C   0  0  0  0  0  0  0  0  0  0  0  0
   -1.3669    2.0106   -1.5755 C   0  0  0  0  0  0  0  0  0  0  0  0
   -2.3321    2.6006   -0.7528 C   0  0  0  0  0  0  0  0  0  0  0  0
    0.1017   -3.0127    1.0023 N   0  0  0  0  0  0  0  0  0  0  0  0
   -3.1631    4.0535   -1.2771 Cl  0  0  0  0  0  0  0  0  0  0  0  0
    3.5595   -1.8489   -0.6512 F   0  0  0  0  0  0  0  0  0  0  0  0
  1  5  2  0
  1 11  1  0
  2  4  1  0
  2 14  2  0
  3 11  2  0
  3 17  1  0
  4 16  2  0
  5 18  1  0
  6  8  1  0
  6 12  1  0
  7  8  1  0
  7 11  1  0
  7 15  2  0
  8 19  1  0
  9 13  2  0
  9 14  1  0
  9 21  1  0
 10 15  1  0
 10 19  2  0
 13 16  1  0
 14 15  1  0
 17 18  2  0
 18 20  1  0
M  END
