
     RDKit          3D

 25 29  0  0  0  0  0  0  0  0999 V2000
    4.3992   -1.2049    1.7875 C   0  0  0  0  0  0  0  0  0  0  0  0
   -2.3337    2.0842   -1.3782 C   0  0  0  0  0  0  0  0  0  0  0  0
    3.6136   -0.0468    1.9394 C   0  0  0  0  0  0  0  0  0  0  0  0
    3.2282   -1.7666   -0.2886 C   0  0  0  0  0  0  0  0  0  0  0  0
    1.0963    1.0134   -0.2175 C   0  0  0  0  0  0  0  0  0  0  0  0
    1.7972    1.2571    0.9203 N   0  0  0  0  0  0  0  0  0  0  0  0
    1.4874   -0.1062   -0.8719 N   0  0  0  0  0  0  0  0  0  0  0  0
    0.9755   -0.5835   -2.1586 C   0  0  0  0  0  0  0  0  0  0  0  0
   -1.3067    1.2872   -0.8445 C   0  0  0  0  0  0  0  0  0  0  0  0
   -1.6495   -0.0434   -0.2788 C   0  0  0  0  0  0  0  0  0  0  0  0
    0.2167    3.1807   -1.0355 C   0  0  0  0  0  0  0  0  0  0  0  0
   -2.5105   -0.0702    0.8301 C   0  0  0  0  0  0  0  0  0  0  0  0
   -0.0200    1.8458   -0.6788 C   0  0  0  0  0  0  0  0  0  0  0  0
    2.6534    0.2177    0.9658 C   0  0  0  0  0  0  0  0  0  0  0  0
   -3.8113   -1.3247    2.5729 C   0  0  0  0  0  0  0  0  0  0  0  0
   -0.6071   -2.1786   -2.9149 O   0  0  0  0  0  0  0  0  0  0  0  0
   -1.1745   -1.2711   -0.8102 C   0  0  0  0  0  0  0  0  0  0  0  0
   -1.6044   -2.4688   -0.2145 C   0  0  0  0  0  0  0  0  0  0  0  0
   -2.4344   -2.4512    0.8593 N   0  0  0  0  0  0  0  0  0  0  0  0
   -0.8127    3.9573   -1.5719 C   0  0  0  0  0  0  0  0  0  0  0  0
   -2.0836    3.4077   -1.7503 C   0  0  0  0  0  0  0  0  0  0  0  0
    4.2067   -2.0610    0.6791 C   0  0  0  0  0  0  0  0  0  0  0  0
   -0.2926   -1.3723   -1.9982 C   0  0  0  0  0  0  0  0  0  0  0  0
   -2.8888   -1.2904    1.3962 C   0  0  0  0  0  0  0  0  0  0  0  0
    2.4686   -0.6094   -0.1068 C   0  0  0  0  0  0  0  0  0  0  0  0
  1  3  1  0
  1 22  2  0
  2  9  2  0
  2 21  1  0
  3 14  2  0
  4 22  1  0
  4 25  2  0
  5  6  2  0
  5  7  1  0
  5 13  1  0
  6 14  1  0
  7  8  1  0
  7 25  1  0
  8 23  1  0
  9 10  1  0
  9 13  1  0
 10 12  2  0
 10 17  1  0
 11 13  2  0
 11 20  1  0
 12 24  1  0
 14 25  1  0
 15 24  1  0
 16 23  2  0
 17 18  2  0
 17 23  1  0
 18 19  1  0
 19 24  2  0
 20 21  2  0
M  END
