
     RDKit          3D

 27 31  0  0  0  0  0  0  0  0999 V2000
   -2.1120   -4.1917    0.4997 C   0  0  0  0  0  0  0  0  0  0  0  0
   -2.3788    1.5981    0.0806 C   0  0  0  0  0  0  0  0  0  0  0  0
   -1.9993   -0.9793   -1.5457 C   0  0  0  0  0  0  0  0  0  0  0  0
    0.1276   -2.1819    0.9467 O   0  0  0  0  0  0  0  0  0  0  0  0
   -3.9041   -2.2572   -2.2746 C   0  0  0  0  0  0  0  0  0  0  0  0
    1.1656    0.4339   -0.0925 C   0  0  1  0  0  0  0  0  0  0  0  0
    1.0823    0.9946    1.3351 C   0  0  0  0  0  0  0  0  0  0  0  0
   -0.4854   -1.5364    0.0554 C   0  0  0  0  0  0  0  0  0  0  0  0
    4.8114    0.9908    2.0770 C   0  0  0  0  0  0  0  0  0  0  0  0
   -2.1966    3.7742   -1.6662 C   0  0  0  0  0  0  0  0  0  0  0  0
    5.9122    0.1791    1.7859 C   0  0  0  0  0  0  0  0  0  0  0  0
    2.4063    1.6713    1.7128 C   0  0  0  0  0  0  0  0  0  0  0  0
    4.5879   -1.0503    0.1728 C   0  0  0  0  0  0  0  0  0  0  0  0
    3.5869    0.7778    1.4259 C   0  0  0  0  0  0  0  0  0  0  0  0
    2.2743   -0.4588   -0.2134 O   0  0  0  0  0  0  0  0  0  0  0  0
   -2.9835    2.8141    0.4112 C   0  0  0  0  0  0  0  0  0  0  0  0
    5.7998   -0.8417    0.8375 C   0  0  0  0  0  0  0  0  0  0  0  0
   -1.6744    1.4605   -1.1304 C   0  0  0  0  0  0  0  0  0  0  0  0
   -1.0069    0.1538   -1.4937 C   0  0  1  0  0  0  0  0  0  0  0  0
    3.4841   -0.2386    0.4547 C   0  0  0  0  0  0  0  0  0  0  0  0
   -3.1066   -1.1079   -2.3851 C   0  0  0  0  0  0  0  0  0  0  0  0
   -0.0717   -0.2651   -0.4419 N   0  0  0  0  0  0  0  0  0  0  0  0
   -2.4618   -3.1259   -0.4973 C   0  0  0  0  0  0  0  0  0  0  0  0
   -3.5863   -3.2599   -1.3379 C   0  0  0  0  0  0  0  0  0  0  0  0
   -1.6851   -1.9658   -0.6313 C   0  0  0  0  0  0  0  0  0  0  0  0
   -2.8927    3.9013   -0.4614 C   0  0  0  0  0  0  0  0  0  0  0  0
   -1.5892    2.5601   -2.0010 C   0  0  0  0  0  0  0  0  0  0  0  0
  1 23  1  0
  2 16  2  0
  2 18  1  0
  3 19  1  0
  3 21  2  0
  3 25  1  0
  4  8  2  0
  5 21  1  0
  5 24  2  0
  6  7  1  0
  6 15  1  0
  6 22  1  1
  7 12  1  0
  8 22  1  0
  8 25  1  0
  9 11  1  0
  9 14  2  0
 10 26  2  0
 10 27  1  0
 11 17  2  0
 12 14  1  0
 13 17  1  0
 13 20  2  0
 14 20  1  0
 15 20  1  0
 16 26  1  0
 19 18  1  1
 18 27  2  0
 19 22  1  0
 23 24  1  0
 23 25  2  0
M  END
