
     RDKit          3D

 17 19  0  0  0  0  0  0  0  0999 V2000
    9.3682  -13.1645  -14.3776 O   0  0  0  0  0  0  0  0  0  0  0  0
    9.9893  -10.7984  -14.2053 O   0  0  0  0  0  0  0  0  0  0  0  0
    7.5681  -12.9510  -12.6847 C   0  0  0  0  0  0  0  0  0  0  0  0
    8.8106  -12.4357  -13.3151 C   0  0  0  0  0  0  0  0  0  0  0  0
    7.7616  -11.4592  -15.0551 C   0  0  0  0  0  0  0  0  0  0  0  0
    7.8947  -13.3503  -16.6472 O   0  0  0  0  0  0  0  0  0  0  0  0
    4.7325  -12.9418  -12.4840 O   0  0  0  0  0  0  0  0  0  0  0  0
    5.0632  -15.0084  -13.4655 O   0  0  0  0  0  0  0  0  0  0  0  0
    5.4064  -13.8219  -13.2445 C   0  0  0  0  0  0  0  0  0  0  0  0
    8.2731  -12.8911  -15.3717 C   0  0  0  0  0  0  0  0  0  0  0  0
    6.6325  -13.1442  -13.7616 C   0  0  0  0  0  0  0  0  0  0  0  0
    7.1382  -11.9988  -11.7119 O   0  0  0  0  0  0  0  0  0  0  0  0
    8.6360  -11.0922  -13.8775 C   0  0  0  0  0  0  0  0  0  0  0  0
    6.3858  -11.8044  -14.4862 C   0  0  0  0  0  0  0  0  0  0  0  0
    7.1457  -13.8175  -14.8511 C   0  0  0  0  0  0  0  0  0  0  0  0
    6.9152  -15.0041  -15.0286 O   0  0  0  0  0  0  0  0  0  0  0  0
    8.0007  -10.6560  -16.1975 O   0  0  0  0  0  0  0  0  0  0  0  0
  1  4  1  0
  1 10  1  0
  2 13  1  0
  3  4  1  0
  3 11  1  0
  3 12  1  0
  4 13  1  0
  5 10  1  0
  5 13  1  0
  5 14  1  0
  5 17  1  0
  6 10  1  0
  7  9  1  0
  8  9  2  0
  9 11  1  0
 10 15  1  0
 11 14  1  0
 11 15  1  0
 15 16  2  0
M  END
$$$$
