
     RDKit          3D

 23 26  0  0  0  0  0  0  0  0999 V2000
    4.4852  -14.6000  -13.5926 O   0  0  0  0  0  0  0  0  0  0  0  0
    7.5694  -14.1288  -16.2274 O   0  0  0  0  0  0  0  0  0  0  0  0
    7.1140  -12.8814  -16.5297 C   0  0  0  0  0  0  0  0  0  0  0  0
    7.3902  -11.1930  -11.9247 O   0  0  0  0  0  0  0  0  0  0  0  0
    8.5231  -13.2414  -12.7931 C   0  0  0  0  0  0  0  0  0  0  0  0
    6.2680  -13.4103  -16.2473 C   0  0  0  0  0  0  0  0  0  0  0  0
    7.0157  -13.5711  -12.4730 C   0  0  0  0  0  0  0  0  0  0  0  0
    6.4565  -10.6198  -16.1152 C   0  0  0  0  0  0  0  0  0  0  0  0
   10.0796  -10.6746  -13.3408 O   0  0  0  0  0  0  0  0  0  0  0  0
    6.2223  -15.8523  -14.1382 O   0  0  0  0  0  0  0  0  0  0  0  0
    9.3332  -13.8759  -13.5791 C   0  0  0  0  0  0  0  0  0  0  0  0
    7.3700  -12.3836  -17.8956 C   0  0  0  0  0  0  0  0  0  0  0  0
    9.8498  -13.4881  -14.6577 O   0  0  0  0  0  0  0  0  0  0  0  0
    7.3252  -10.0894  -17.1168 C   0  0  0  0  0  0  0  0  0  0  0  0
    8.7217  -10.8974  -13.8582 C   0  0  0  0  0  0  0  0  0  0  0  0
    6.8127  -12.1917  -14.2987 C   0  0  0  0  0  0  0  0  0  0  0  0
    7.3395  -10.9949  -18.1913 C   0  0  0  0  0  0  0  0  0  0  0  0
    7.8153  -11.8297  -13.1359 C   0  0  0  0  0  0  0  0  0  0  0  0
    7.1069  -11.8302  -15.5245 C   0  0  0  0  0  0  0  0  0  0  0  0
    8.7144  -11.5635  -15.2031 C   0  0  0  0  0  0  0  0  0  0  0  0
    5.7148  -14.7569  -13.9471 C   0  0  0  0  0  0  0  0  0  0  0  0
    6.7316  -13.7937  -13.8965 C   0  0  0  0  0  0  0  0  0  0  0  0
    5.6086  -11.8163  -13.8056 C   0  0  0  0  0  0  0  0  0  0  0  0
  1 21  1  0
  2  3  1  0
  2  6  1  0
  3  6  1  0
  3 12  1  0
  3 19  1  0
  4 18  1  0
  5  7  1  0
  5 11  1  0
  5 18  1  0
  7 22  1  0
  8 14  1  0
  8 19  1  0
  9 15  1  0
 10 21  2  0
 11 13  1  0
 12 17  2  0
 14 17  1  0
 15 18  1  0
 15 20  1  0
 16 18  1  0
 16 19  1  0
 16 22  1  0
 16 23  1  0
 19 20  1  0
 21 22  1  0
M  END
$$$$
