
     RDKit          3D

 19 21  0  0  0  0  0  0  0  0999 V2000
    8.2714  -12.4764  -14.6625 C   0  0  0  0  0  0  0  0  0  0  0  0
    6.8652  -11.2364  -16.1110 O   0  0  0  0  0  0  0  0  0  0  0  0
    7.2379  -13.4408  -12.7253 O   0  0  0  0  0  0  0  0  0  0  0  0
    5.8791  -13.4692  -13.2858 C   0  0  0  0  0  0  0  0  0  0  0  0
    7.9606  -12.3000  -13.2337 C   0  0  0  0  0  0  0  0  0  0  0  0
    8.0558  -10.4452  -16.0036 C   0  0  0  0  0  0  0  0  0  0  0  0
    9.0945  -11.3291  -15.3034 C   0  0  0  0  0  0  0  0  0  0  0  0
    9.0256  -13.6635  -14.8275 O   0  0  0  0  0  0  0  0  0  0  0  0
    8.5455   -9.9586  -17.2506 O   0  0  0  0  0  0  0  0  0  0  0  0
    7.0816  -11.0880  -12.8047 C   0  0  0  0  0  0  0  0  0  0  0  0
    6.9361  -12.5506  -15.3728 C   0  0  0  0  0  0  0  0  0  0  0  0
    9.8253  -10.6684  -14.3691 O   0  0  0  0  0  0  0  0  0  0  0  0
    6.8169  -13.4909  -16.5716 C   0  0  0  0  0  0  0  0  0  0  0  0
    5.7087  -12.4875  -14.4105 C   0  0  0  0  0  0  0  0  0  0  0  0
    4.4133  -15.2573  -13.6360 O   0  0  0  0  0  0  0  0  0  0  0  0
    5.8523  -11.1127  -13.7671 C   0  0  0  0  0  0  0  0  0  0  0  0
    6.4816  -15.5167  -14.3551 O   0  0  0  0  0  0  0  0  0  0  0  0
    5.5728  -14.8291  -13.7425 C   0  0  0  0  0  0  0  0  0  0  0  0
    6.7331  -11.2202  -11.4215 O   0  0  0  0  0  0  0  0  0  0  0  0
  1  5  1  0
  1  7  1  0
  1  8  1  0
  1 11  1  0
  2  6  1  0
  2 11  1  0
  3  4  1  0
  3  5  1  0
  4 14  1  0
  4 18  1  0
  5 10  1  0
  6  7  1  0
  6  9  1  0
  7 12  1  0
 10 16  1  0
 10 19  1  0
 11 13  1  0
 11 14  1  0
 14 16  1  0
 15 18  2  0
 17 18  1  0
M  END
$$$$
