
     RDKit          3D

 37 39  0  0  0  0  0  0  0  0999 V2000
   22.2553    7.5456   25.6862 C   0  0  0  0  0  0  0  0  0  0  0  0
   17.8816    9.0782   30.8891 P   0  0  0  0  0  0  0  0  0  0  0  0
   17.9836   10.3745   32.4876 S   0  0  0  0  0  0  0  0  0  0  0  0
   22.4591    7.8147   34.4961 O   0  0  0  0  0  0  0  0  0  0  0  0
   27.4858   10.0977   34.9885 C   0  0  0  0  0  0  0  0  0  0  0  0
   25.1935    9.3851   34.3703 C   0  0  0  0  0  0  0  0  0  0  0  0
   20.4805   11.0600   29.9977 O   0  0  0  0  0  0  0  0  0  0  0  0
   18.3179    7.6127   26.3060 C   0  0  0  0  0  0  0  0  0  0  0  0
   28.2921    8.9986   34.7104 N   0  0  0  0  0  0  0  0  0  0  0  0
   22.8007    9.9490   31.6812 C   0  0  0  0  0  0  0  0  0  0  0  0
   17.5888    8.3500   28.9454 O   0  0  0  0  0  0  0  0  0  0  0  0
   29.6772    8.8734   34.8479 C   0  0  0  0  0  0  0  0  0  0  0  0
   30.3196    9.9740   35.3116 N   0  0  0  0  0  0  0  0  0  0  0  0
   29.7578   11.1829   35.6250 C   0  0  0  0  0  0  0  0  0  0  0  0
   26.0964   11.5949   35.2971 C   0  0  0  0  0  0  0  0  0  0  0  0
   17.3210   10.0971   29.8740 O   0  0  0  0  0  0  0  0  0  0  0  0
   28.2453   11.3811   35.4577 C   0  0  0  0  0  0  0  0  0  0  0  0
   21.1408    8.9976   28.4321 N   0  0  0  0  0  0  0  0  0  0  0  0
   20.2537    8.0803   27.6768 C   0  0  0  0  0  0  0  0  0  0  0  0
   23.1380    8.6730   25.4582 O   0  0  0  0  0  0  0  0  0  0  0  0
   19.5083    8.6879   30.6339 O   0  0  0  0  0  0  0  0  0  0  0  0
   22.8225    9.1245   34.0314 C   0  0  0  0  0  0  0  0  0  0  0  0
   27.2231   12.2089   35.6308 N   0  0  0  0  0  0  0  0  0  0  0  0
   20.7561    9.5736   30.0234 P   0  0  0  0  0  0  0  0  0  0  0  0
   22.0622    9.0714   30.8521 O   0  0  0  0  0  0  0  0  0  0  0  0
   23.7445    9.3653   36.3723 O   0  0  0  0  0  0  0  0  0  0  0  0
   19.7242    6.9069   25.9948 O   0  0  0  0  0  0  0  0  0  0  0  0
   24.9471    9.3112   33.0117 O   0  0  0  0  0  0  0  0  0  0  0  0
   23.8304    9.7218   35.0071 C   0  0  0  0  0  0  0  0  0  0  0  0
   23.5619    9.1078   32.6560 C   0  0  0  0  0  0  0  0  0  0  0  0
   18.8527    8.4587   27.4802 C   0  0  0  0  0  0  0  0  0  0  0  0
   17.4694    6.6160   26.8330 O   0  0  0  0  0  0  0  0  0  0  0  0
   17.0776    7.9630   31.4315 O   0  0  0  0  0  0  0  0  0  0  0  0
   20.8349    7.9759   26.1311 C   0  0  0  0  0  0  0  0  0  0  0  0
   26.2051   10.3085   34.9603 N   0  0  0  0  0  0  0  0  0  0  0  0
   30.4847   12.2098   36.0755 N   0  0  0  0  0  0  0  0  0  0  0  0
   18.8738    9.8867   26.6558 C   0  0  0  0  0  0  0  0  0  0  0  0
  1 20  1  0
  1 34  1  0
  2  3  1  0
  2 16  1  0
  2 21  1  0
  2 33  2  0
  4 22  1  0
  5  9  2  0
  5 17  1  0
  5 35  1  0
  6 28  1  0
  6 29  1  0
  6 35  1  0
  7 24  2  0
  8 27  1  0
  8 31  1  0
  8 32  1  0
  9 12  1  0
 10 25  1  0
 10 30  1  0
 12 13  2  0
 13 14  1  0
 14 17  2  0
 14 36  1  0
 15 23  2  0
 15 35  1  0
 17 23  1  0
 18 19  1  0
 18 24  1  0
 19 31  1  0
 19 34  1  0
 21 24  1  0
 22 29  1  0
 22 30  1  0
 24 25  1  0
 26 29  1  0
 27 34  1  0
 28 30  1  0
 31 37  1  0
M  END
$$$$
