
     RDKit          3D

 38 42  0  0  0  0  0  0  0  0999 V2000
   31.0523   12.2697   36.5610 C   0  0  0  0  0  0  0  0  0  0  0  0
   21.1214    8.4761   33.9212 O   0  0  0  0  0  0  0  0  0  0  0  0
   22.7506    7.8128   25.9727 C   0  0  0  0  0  0  0  0  0  0  0  0
   29.4750   10.7210   35.4859 C   0  0  0  0  0  0  0  0  0  0  0  0
   20.9287    8.6834   31.4918 N   0  0  0  0  0  0  0  0  0  0  0  0
   24.6554    8.4973   33.2567 C   0  0  0  0  0  0  0  0  0  0  0  0
   18.1973    9.9089   30.8750 N   0  0  0  0  0  0  0  0  0  0  0  0
   19.1270    8.9231   30.3977 C   0  0  0  0  0  0  0  0  0  0  0  0
   20.3748    9.2342   30.3484 C   0  0  0  0  0  0  0  0  0  0  0  0
   21.8198    8.6247   26.8306 C   0  0  0  0  0  0  0  0  0  0  0  0
   20.0201    8.9702   28.1799 N   0  0  0  0  0  0  0  0  0  0  0  0
   18.8533    8.8282   28.8133 C   0  0  0  0  0  0  0  0  0  0  0  0
   27.1025   11.2758   35.2941 C   0  0  0  0  0  0  0  0  0  0  0  0
   30.4579    9.8552   35.2850 N   0  0  0  0  0  0  0  0  0  0  0  0
   23.7515    9.9340   35.1376 C   0  0  0  0  0  0  0  0  0  0  0  0
   21.0262    8.4353   29.0195 C   0  0  0  0  0  0  0  0  0  0  0  0
   20.3720    8.3200   26.8166 C   0  0  0  0  0  0  0  0  0  0  0  0
   28.6821   12.8618   36.3436 C   0  0  0  0  0  0  0  0  0  0  0  0
   22.5597    9.9728   32.9428 O   0  0  0  0  0  0  0  0  0  0  0  0
   25.6113    9.3422   33.6523 O   0  0  0  0  0  0  0  0  0  0  0  0
   25.8989   11.0977   35.0562 N   0  0  0  0  0  0  0  0  0  0  0  0
   27.4407   12.4598   35.9405 C   0  0  0  0  0  0  0  0  0  0  0  0
   23.2831    9.0589   33.8733 C   0  0  0  0  0  0  0  0  0  0  0  0
   21.2501    9.6004   32.7926 P   0  0  0  0  0  0  0  0  0  0  0  0
   26.2006   13.0979   36.0294 N   0  0  0  0  0  0  0  0  0  0  0  0
   16.4267    7.5737   26.6858 C   0  0  0  0  0  0  0  0  0  0  0  0
   28.2261   10.3709   35.0976 N   0  0  0  0  0  0  0  0  0  0  0  0
   17.9067    7.6142   26.6641 O   0  0  0  0  0  0  0  0  0  0  0  0
   17.2019    6.6479   28.7331 O   0  0  0  0  0  0  0  0  0  0  0  0
   23.6389    9.2277   36.3177 O   0  0  0  0  0  0  0  0  0  0  0  0
   29.6723   11.9583   36.1134 C   0  0  0  0  0  0  0  0  0  0  0  0
   23.8494    8.5248   25.7347 O   0  0  0  0  0  0  0  0  0  0  0  0
   18.7961    6.6086   28.2714 O   0  0  0  0  0  0  0  0  0  0  0  0
   20.4368   10.8262   32.7018 O   0  0  0  0  0  0  0  0  0  0  0  0
   25.2008    9.8711   34.9042 C   0  0  0  0  0  0  0  0  0  0  0  0
   22.2039    8.9640   28.1572 C   0  0  0  0  0  0  0  0  0  0  0  0
   25.2184   12.2477   35.5662 C   0  0  0  0  0  0  0  0  0  0  0  0
   18.1382    7.5139   28.2291 C   0  0  0  0  0  0  0  0  0  0  0  0
  1 31  1  0
  2 24  2  0
  3 10  1  0
  3 32  1  0
  4 14  1  0
  4 27  2  0
  4 31  1  0
  5  9  1  0
  5 24  1  0
  6 20  1  0
  6 23  1  0
  7  8  1  0
  8  9  1  0
  8 12  1  0
  9 16  1  0
 10 17  1  0
 10 36  1  0
 11 12  1  0
 11 16  1  0
 11 17  1  0
 12 38  1  0
 13 21  1  0
 13 22  2  0
 13 27  1  0
 15 23  1  0
 15 30  1  0
 15 35  1  0
 16 36  1  0
 18 22  1  0
 18 31  2  0
 19 23  1  0
 19 24  1  0
 20 35  1  0
 21 35  1  0
 21 37  1  0
 22 25  1  0
 24 34  1  0
 25 37  2  0
 26 28  1  0
 28 38  1  0
 29 38  1  0
 33 38  2  0
M  END
$$$$
