
     RDKit          3D

 42 46  0  0  0  0  0  0  0  0999 V2000
   23.7496    9.2327   36.6883 O   0  0  0  0  0  0  0  0  0  0  0  0
   17.1682    8.3208   28.3630 O   0  0  0  0  0  0  0  0  0  0  0  0
   23.4514    8.1311   25.8857 C   0  0  0  0  0  0  0  0  0  0  0  0
   30.4492    9.7071   34.7949 N   0  0  0  0  0  0  0  0  0  0  0  0
   24.8703    9.3734   33.3106 O   0  0  0  0  0  0  0  0  0  0  0  0
   22.1387    9.2352   31.2656 N   0  0  0  0  0  0  0  0  0  0  0  0
   17.6141    9.5251   29.0079 C   0  0  0  0  0  0  0  0  0  0  0  0
   30.9745   12.0821   36.2157 N   0  0  0  0  0  0  0  0  0  0  0  0
   20.4152   10.7752   30.4112 C   0  0  0  0  0  0  0  0  0  0  0  0
   19.0308   10.1399   32.2259 C   0  0  0  0  0  0  0  0  0  0  0  0
   29.6962   11.6761   35.8143 C   0  0  0  0  0  0  0  0  0  0  0  0
   27.1429   10.8126   35.1198 C   0  0  0  0  0  0  0  0  0  0  0  0
   21.3336    8.5751   28.8897 N   0  0  0  0  0  0  0  0  0  0  0  0
   22.8634    8.6352   34.5303 C   0  0  0  0  0  0  0  0  0  0  0  0
   28.1745    9.9403   34.8055 N   0  0  0  0  0  0  0  0  0  0  0  0
   21.6922   10.1996   30.3916 C   0  0  0  0  0  0  0  0  0  0  0  0
   22.5081   10.8289   32.6831 O   0  0  0  0  0  0  0  0  0  0  0  0
   20.7757    8.8117   26.7838 O   0  0  0  0  0  0  0  0  0  0  0  0
   18.1094    6.1633   26.5304 C   0  0  0  0  0  0  0  0  0  0  0  0
   19.4756    7.0114   30.5778 O   0  0  0  0  0  0  0  0  0  0  0  0
   23.5618    8.7344   33.1926 C   0  0  0  0  0  0  0  0  0  0  0  0
   18.8598    9.0126   29.7711 C   0  0  0  0  0  0  0  0  0  0  0  0
   18.9550    4.9489   28.2722 O   0  0  0  0  0  0  0  0  0  0  0  0
   23.6937    9.5391   35.3230 C   0  0  0  0  0  0  0  0  0  0  0  0
   25.8127   10.7198   34.9783 N   0  0  0  0  0  0  0  0  0  0  0  0
   27.4211   12.0703   35.7819 C   0  0  0  0  0  0  0  0  0  0  0  0
   22.4200    7.3668   25.3099 O   0  0  0  0  0  0  0  0  0  0  0  0
   18.2712    7.5910   30.0869 C   0  0  0  0  0  0  0  0  0  0  0  0
   28.6849   12.5570   36.1496 N   0  0  0  0  0  0  0  0  0  0  0  0
   22.3650    9.2021   29.8371 C   0  0  0  0  0  0  0  0  0  0  0  0
   20.2438   11.3082   29.1599 O   0  0  0  0  0  0  0  0  0  0  0  0
   17.8326    7.1540   28.9146 C   0  0  0  0  0  0  0  0  0  0  0  0
   22.7259    9.6747   32.3645 C   0  0  0  0  0  0  0  0  0  0  0  0
   25.2599   11.9079   35.5491 C   0  0  0  0  0  0  0  0  0  0  0  0
   26.2122   12.7424   36.0096 N   0  0  0  0  0  0  0  0  0  0  0  0
   25.0855    9.5036   34.6835 C   0  0  0  0  0  0  0  0  0  0  0  0
   21.6144    8.6166   27.6299 C   0  0  0  0  0  0  0  0  0  0  0  0
   18.7128    6.3671   27.8900 C   0  0  0  0  0  0  0  0  0  0  0  0
   19.4876   10.0111   30.8331 C   0  0  0  0  0  0  0  0  0  0  0  0
   22.8538    7.3114   35.0405 O   0  0  0  0  0  0  0  0  0  0  0  0
   29.3889   10.3713   35.0902 C   0  0  0  0  0  0  0  0  0  0  0  0
   23.1140    8.4927   27.2664 C   0  0  0  0  0  0  0  0  0  0  0  0
  1 24  1  0
  2  7  1  0
  2 32  1  0
  3 27  1  0
  3 42  1  0
  4 41  1  0
  5 21  1  0
  5 36  1  0
  6 16  1  0
  6 30  1  0
  6 33  1  0
  7 22  1  0
  8 11  1  0
  9 16  1  0
  9 31  1  0
  9 39  1  0
 10 39  1  0
 11 29  4  0
 11 41  4  0
 12 15  4  0
 12 25  4  0
 12 26  4  0
 13 30  1  0
 13 37  1  0
 14 21  1  0
 14 24  1  0
 14 40  1  0
 15 41  4  0
 16 30  1  0
 17 33  2  0
 18 37  2  0
 19 38  1  0
 20 28  1  0
 21 33  1  0
 22 28  1  0
 22 39  1  0
 23 38  1  0
 24 36  1  0
 25 34  4  0
 25 36  1  0
 26 29  4  0
 26 35  4  0
 28 32  1  0
 32 38  1  0
 34 35  4  0
 37 42  1  0
M  END
$$$$
