
     RDKit          3D

 14 14  0  0  0  0  0  0  0  0999 V2000
  -19.8092   15.9464  -29.1882 C   0  0  0  0  0  0  0  0  0  0  0  0
  -22.9348   19.4391  -27.4927 C   0  0  0  0  0  0  0  0  0  0  0  0
  -20.6377   15.1079  -26.8948 C   0  0  1  0  0  0  0  0  0  0  0  0
  -20.4417   17.3255  -29.2933 C   0  0  0  0  0  0  0  0  0  0  0  0
  -19.5735   15.7290  -24.7898 O   0  0  0  0  0  0  0  0  0  0  0  0
  -20.1702   14.6471  -25.5044 C   0  0  0  0  0  0  0  0  0  0  0  0
  -21.5618   17.6424  -28.5968 C   0  0  0  0  0  0  0  0  0  0  0  0
  -22.1081   18.9210  -28.5441 N   0  0  0  0  0  0  0  0  0  0  0  0
  -19.5512   17.7006  -31.4704 O   0  0  0  0  0  0  0  0  0  0  0  0
  -22.8963   20.8436  -27.6211 O   0  0  0  0  0  0  0  0  0  0  0  0
  -21.5674   16.1794  -26.6686 O   0  0  0  0  0  0  0  0  0  0  0  0
  -19.4423   15.5485  -27.7524 C   0  0  0  0  0  0  0  0  0  0  0  0
  -19.6829   18.2803  -30.1767 C   0  0  0  0  0  0  0  0  0  0  0  0
  -22.2911   16.5326  -27.8453 C   0  0  0  0  0  0  0  0  0  0  0  0
  1  4  1  0
  1 12  1  0
  2  8  1  0
  2 10  1  0
  3  6  1  1
  3 11  1  0
  3 12  1  0
  4  7  2  0
  4 13  1  0
  5  6  1  0
  7  8  1  0
  7 14  1  0
  9 13  1  0
 11 14  1  0
M  END
$$$$
