
     RDKit          3D

 11 11  0  0  0  0  0  0  0  0999 V2000
   -4.6070   75.7070    5.9716 O   0  0  0  0  0  0  0  0  0  0  0  0
   -4.2440   75.4811    4.6424 C   0  0  0  0  0  0  0  0  0  0  0  0
   -3.6153   76.8679    6.5840 C   0  0  0  0  0  0  0  0  0  0  0  0
   -2.8390   77.0727    5.9996 C   0  0  0  0  0  0  0  0  0  0  0  0
   -5.4651   76.8388    3.1271 N   0  0  0  0  0  0  0  0  0  0  0  0
   -3.1306   78.6517    5.6248 C   0  0  0  0  0  0  0  0  0  0  0  0
   -3.6021   74.1270    4.3581 C   0  0  0  0  0  0  0  0  0  0  0  0
   -1.3231   76.9116    6.3938 C   0  0  0  0  0  0  0  0  0  0  0  0
   -3.1869   76.6161    4.6304 C   0  0  0  0  0  0  0  0  0  0  0  0
   -5.4128   75.7088    3.7609 C   0  0  0  0  0  0  0  0  0  0  0  0
   -6.1377   74.7676    3.5508 O   0  0  0  0  0  0  0  0  0  0  0  0
  1  2  1  0
  1  3  1  0
  2  7  1  0
  2  9  1  0
  2 10  1  0
  3  4  1  0
  4  6  1  0
  4  8  1  0
  4  9  1  0
  5 10  1  0
 10 11  2  0
M  END
$$$$
