
     RDKit          3D

  8  7  0  0  0  0  0  0  0  0999 V2000
   -5.1690   74.2587    4.9078 O   0  0  0  0  0  0  0  0  0  0  0  0
   -4.3764   76.5134    5.0494 C   0  0  0  0  0  0  0  0  0  0  0  0
   -4.6239   75.2158    4.3456 C   0  0  0  0  0  0  0  0  0  0  0  0
   -2.9493   76.9962    5.2678 C   0  0  0  0  0  0  0  0  0  0  0  0
   -4.3155   75.1434    3.1597 O   0  0  0  0  0  0  0  0  0  0  0  0
   -5.1057   77.5000    4.2486 O   0  0  0  0  0  0  0  0  0  0  0  0
   -2.0409   75.9639    5.9375 C   0  0  0  0  0  0  0  0  0  0  0  0
   -2.9136   78.4288    5.9198 C   0  0  0  0  0  0  0  0  0  0  0  0
  1  3  1  0
  2  3  1  0
  2  4  1  0
  2  6  1  0
  3  5  2  0
  4  7  1  0
  4  8  1  0
M  END
$$$$
