
     RDKit          3D

 11 11  0  0  0  0  0  0  0  0999 V2000
   -5.0636   76.2205    3.7519 C   0  0  0  0  0  0  0  0  0  0  0  0
   -3.3193   74.3984    4.2753 C   0  0  0  0  0  0  0  0  0  0  0  0
   -5.8155   77.1104    4.1375 O   0  0  0  0  0  0  0  0  0  0  0  0
   -4.4180   75.3206    4.7192 C   0  0  0  0  0  0  0  0  0  0  0  0
   -4.6886   73.8530    4.6244 C   0  0  0  0  0  0  0  0  0  0  0  0
   -3.7908   77.2559    6.2204 C   0  0  0  0  0  0  0  0  0  0  0  0
   -4.9682   76.1227    2.5054 O   0  0  0  0  0  0  0  0  0  0  0  0
   -1.4934   76.5210    6.9819 C   0  0  0  0  0  0  0  0  0  0  0  0
   -2.0394   78.9426    6.6297 C   0  0  0  0  0  0  0  0  0  0  0  0
   -2.2907   77.5512    6.1560 C   0  0  0  0  0  0  0  0  0  0  0  0
   -4.0543   75.8373    6.0628 N   0  0  0  0  0  0  0  0  0  0  0  0
  1  3  2  0
  1  4  1  0
  1  7  1  0
  2  4  1  0
  2  5  1  0
  4  5  1  0
  4 11  1  0
  6 10  1  0
  6 11  1  0
  8 10  1  0
  9 10  1  0
M  END
$$$$
