
     RDKit          3D

  9  8  0  0  0  0  0  0  0  0999 V2000
   -2.8724   78.2179    6.3799 C   0  0  0  0  0  0  0  0  0  0  0  0
   -5.2201   76.0764    2.6569 O   0  0  0  0  0  0  0  0  0  0  0  0
   -1.1143   76.6876    5.7988 O   0  0  0  0  0  0  0  0  0  0  0  0
   -3.3654   76.2789    4.8350 C   0  0  0  0  0  0  0  0  0  0  0  0
   -2.5787   76.6789    6.0927 C   0  0  0  0  0  0  0  0  0  0  0  0
   -5.1995   75.5026    3.7245 C   0  0  0  0  0  0  0  0  0  0  0  0
   -5.6279   74.2618    4.0211 O   0  0  0  0  0  0  0  0  0  0  0  0
   -5.4394   77.4057    5.0929 O   0  0  0  0  0  0  0  0  0  0  0  0
   -4.6926   75.8482    5.0306 C   0  0  0  0  0  0  0  0  0  0  0  0
  1  5  1  0
  2  6  2  0
  3  5  1  0
  4  5  1  0
  4  9  1  0
  6  7  1  0
  6  9  1  0
  8  9  1  0
M  END
$$$$
