
     RDKit          3D

 21 23  0  0  0  0  0  0  0  0999 V2000
    1.2018   76.6934    6.7194 C   0  0  0  0  0  0  0  0  0  0  0  0
   -4.1231   78.8126    3.9334 C   0  0  0  0  0  0  0  0  0  0  0  0
   -4.9724   78.4948    5.1376 C   0  0  0  0  0  0  0  0  0  0  0  0
   -0.8358   77.5165    6.3041 C   0  0  0  0  0  0  0  0  0  0  0  0
   -4.5485   73.6196    4.9418 C   0  0  0  0  0  0  0  0  0  0  0  0
    0.8412   78.6004    8.2229 C   0  0  0  0  0  0  0  0  0  0  0  0
   -4.5340   76.0242    4.5777 C   0  0  0  0  0  0  0  0  0  0  0  0
   -4.5845   75.6746    5.7564 C   0  0  0  0  0  0  0  0  0  0  0  0
    0.0106   78.7507    6.4237 C   0  0  0  0  0  0  0  0  0  0  0  0
   -5.0694   75.8810    2.3235 N   0  0  0  0  0  0  0  0  0  0  0  0
   -2.6067   78.0195    8.0695 C   0  0  0  0  0  0  0  0  0  0  0  0
   -3.5336   78.8206    7.1633 C   0  0  0  0  0  0  0  0  0  0  0  0
   -4.6843   73.9973    3.7129 N   0  0  0  0  0  0  0  0  0  0  0  0
   -5.2519   77.3777    4.2437 N   0  0  0  0  0  0  0  0  0  0  0  0
   -4.7126   76.6337    6.8191 N   0  0  0  0  0  0  0  0  0  0  0  0
   -4.7715   78.1255    6.5806 C   0  0  0  0  0  0  0  0  0  0  0  0
   -0.1649   79.8094    6.1697 O   0  0  0  0  0  0  0  0  0  0  0  0
   -4.5096   74.4044    5.9920 N   0  0  0  0  0  0  0  0  0  0  0  0
   -1.7691   76.8748    7.3392 C   0  0  0  0  0  0  0  0  0  0  0  0
   -4.7667   75.3653    3.4603 C   0  0  0  0  0  0  0  0  0  0  0  0
    0.4306   77.9205    6.9745 C   0  0  0  0  0  0  0  0  0  0  0  0
  1 21  1  0
  2  3  1  0
  3 14  1  0
  3 16  1  0
  4  9  1  0
  4 19  1  0
  4 21  1  0
  5 13  2  0
  5 18  1  0
  6 21  1  0
  7  8  1  0
  7 14  1  0
  7 20  1  0
  8 15  1  0
  8 18  2  0
  9 17  1  0
  9 21  1  0
 10 20  2  0
 11 12  1  0
 11 19  1  0
 12 16  1  0
 13 20  1  0
 15 16  1  0
M  END
$$$$
