
     RDKit          3D

 10 10  0  0  0  0  0  0  0  0999 V2000
    3.2471   -0.4514   -0.3128 N   0  0  0  0  0  0  0  0  0  0  0  0
   -2.9145   -0.3971   -0.0691 C   0  0  0  0  0  0  0  0  0  0  0  0
   -1.5421    0.0191   -0.6077 C   0  0  1  0  0  0  0  0  0  0  0  0
    0.7301   -0.4451   -0.0410 C   0  0  0  0  0  0  0  0  0  0  0  0
   -0.9332    1.1917    0.1767 C   0  0  0  0  0  0  0  0  0  0  0  0
    1.4275    1.6384    1.0373 N   0  0  0  0  0  0  0  0  0  0  0  0
    2.0339   -1.1361    0.0038 C   0  0  0  0  0  0  0  0  0  0  0  0
    2.0706   -2.3679    0.2645 O   0  0  0  0  0  0  0  0  0  0  0  0
   -0.5083   -1.1157   -0.5224 C   0  0  0  0  0  0  0  0  0  0  0  0
    0.4865    0.7977    0.3627 C   0  0  0  0  0  0  0  0  0  0  0  0
  1  7  1  0
  3  2  1  1
  3  5  1  0
  3  9  1  0
  4  7  1  0
  4  9  1  0
  4 10  2  0
  5 10  1  0
  6 10  1  0
  7  8  2  0
M  END
