
     RDKit          3D

 25 29  0  0  0  0  0  0  0  0999 V2000
   -1.3133    0.5364   -1.5673 C   0  0  0  0  0  0  0  0  0  0  0  0
    2.7343    0.8783   -1.7833 C   0  0  0  0  0  0  0  0  0  0  0  0
    0.1559   -1.9194    0.3710 C   0  0  0  0  0  0  0  0  0  0  0  0
    2.2650   -0.1855   -1.0063 C   0  0  0  0  0  0  0  0  0  0  0  0
   -2.4357    2.9256    0.4970 C   0  0  0  0  0  0  0  0  0  0  0  0
    2.3656   -1.4475   -1.4949 F   0  0  0  0  0  0  0  0  0  0  0  0
    1.6230    1.3826    0.7314 C   0  0  0  0  0  0  0  0  0  0  0  0
    2.2358   -2.0854    1.5512 C   0  0  0  0  0  0  0  0  0  0  0  0
   -1.4949   -0.2315   -0.3703 N   0  0  0  0  0  0  0  0  0  0  0  0
   -1.8941    1.8343   -1.6697 N   0  0  0  0  0  0  0  0  0  0  0  0
    2.6429    2.1887   -1.3104 C   0  0  0  0  0  0  0  0  0  0  0  0
   -1.2417   -3.8624   -0.9574 C   0  0  0  0  0  0  0  0  0  0  0  0
    1.6893    0.0589    0.2601 C   0  0  0  0  0  0  0  0  0  0  0  0
    1.7943   -3.3869    1.0549 N   0  0  0  0  0  0  0  0  0  0  0  0
   -1.6871   -2.5703   -0.9725 N   0  0  0  0  0  0  0  0  0  0  0  0
    2.0065    3.7132    0.4068 F   0  0  0  0  0  0  0  0  0  0  0  0
   -1.0164   -1.5819   -0.3135 C   0  0  0  0  0  0  0  0  0  0  0  0
   -1.9786    0.4170    0.8524 C   0  0  0  0  0  0  0  0  0  0  0  0
    2.0904    2.4406   -0.0532 C   0  0  0  0  0  0  0  0  0  0  0  0
   -0.6395    0.0766   -2.5288 O   0  0  0  0  0  0  0  0  0  0  0  0
    1.1374   -1.0667    1.1172 C   0  0  1  0  0  0  0  0  0  0  0  0
    0.5753   -3.2139    0.3686 C   0  0  0  0  0  0  0  0  0  0  0  0
   -0.1001   -4.1892   -0.2869 N   0  0  0  0  0  0  0  0  0  0  0  0
   -3.0217    1.5140    0.5677 C   0  0  2  0  0  0  0  0  0  0  0  0
   -2.9545    2.2601   -0.7639 C   0  0  1  0  0  0  0  0  0  0  0  0
  1  9  1  0
  1 10  1  0
  1 20  2  0
  2  4  1  0
  2 11  2  0
  3 17  1  0
  3 21  1  0
  3 22  2  0
  4  6  1  0
  4 13  2  0
 24  5  1  1
 25  5  1  1
  7 13  1  0
  7 19  2  0
  8 14  1  0
  8 21  1  0
  9 17  1  0
  9 18  1  0
 10 25  1  0
 11 19  1  0
 12 15  1  0
 12 23  2  0
 21 13  1  6
 14 22  1  0
 15 17  2  0
 16 19  1  0
 18 24  1  0
 22 23  1  0
 24 25  1  0
M  END
