
     RDKit          3D

 23 25  0  0  0  0  0  0  0  0999 V2000
   -2.2030   -0.1386   -1.0662 C   0  0  0  0  0  0  0  0  0  0  0  0
   -2.6455   -0.0453    1.3950 C   0  0  0  0  0  0  0  0  0  0  0  0
   -0.9870   -1.6925   -2.4948 C   0  0  0  0  0  0  0  0  0  0  0  0
    2.2606   -1.4710    0.2615 C   0  0  0  0  0  0  0  0  0  0  0  0
   -1.1166   -1.0153   -1.2653 C   0  0  0  0  0  0  0  0  0  0  0  0
   -2.3687    0.6204    0.1900 C   0  0  0  0  0  0  0  0  0  0  0  0
   -2.7854    0.6795    2.5825 C   0  0  0  0  0  0  0  0  0  0  0  0
   -2.3985    2.7415    1.3740 C   0  0  0  0  0  0  0  0  0  0  0  0
   -2.9675   -0.6048   -3.2839 N   0  0  0  0  0  0  0  0  0  0  0  0
   -1.9429   -1.4695   -3.5070 C   0  0  0  0  0  0  0  0  0  0  0  0
    2.7445    0.9920    2.2509 N   0  0  0  0  0  0  0  0  0  0  0  0
    3.6952    0.6567    0.0014 C   0  0  0  0  0  0  0  0  0  0  0  0
    2.5677    1.3021    0.8289 C   0  0  1  0  0  0  0  0  0  0  0  0
    1.1733    0.8280    0.3388 C   0  0  0  0  0  0  0  0  0  0  0  0
   -1.8626   -2.1309   -4.7745 N   0  0  0  0  0  0  0  0  0  0  0  0
    0.1048   -2.6170   -2.7003 C   0  0  0  0  0  0  0  0  0  0  0  0
   -2.2588    2.0203    0.1843 C   0  0  0  0  0  0  0  0  0  0  0  0
   -3.1154    0.0575   -2.1091 C   0  0  0  0  0  0  0  0  0  0  0  0
    3.6756   -0.8836    0.0869 C   0  0  0  0  0  0  0  0  0  0  0  0
    1.1887   -0.5582   -0.3501 C   0  0  2  0  0  0  0  0  0  0  0  0
    0.9797   -3.3567   -2.8640 N   0  0  0  0  0  0  0  0  0  0  0  0
   -2.6589    2.0714    2.5726 C   0  0  0  0  0  0  0  0  0  0  0  0
   -0.1275   -1.1888   -0.2383 N   0  0  0  0  0  0  0  0  0  0  0  0
  1  5  2  0
  1  6  1  0
  1 18  1  0
  2  6  2  0
  2  7  1  0
  3  5  1  0
  3 10  2  0
  3 16  1  0
  4 19  1  0
  4 20  1  0
  5 23  1  0
  6 17  1  0
  7 22  2  0
  8 17  2  0
  8 22  1  0
  9 10  1  0
  9 18  2  0
 10 15  1  0
 13 11  1  1
 12 13  1  0
 12 19  1  0
 13 14  1  0
 14 20  1  0
 16 21  3  0
 20 23  1  1
M  END
