
     RDKit          3D

 18 20  0  0  0  0  0  0  0  0999 V2000
   -3.9770   -0.5058    0.7654 N   0  0  0  0  0  0  0  0  0  0  0  0
   -0.3731   -0.2084   -0.2473 N   0  0  0  0  0  0  0  0  0  0  0  0
   -2.3077    0.9604    1.3102 C   0  0  0  0  0  0  0  0  0  0  0  0
    1.3068    1.3779    0.3591 N   0  0  0  0  0  0  0  0  0  0  0  0
    2.4123    0.6843   -0.2461 C   0  0  0  0  0  0  0  0  0  0  0  0
   -0.9976    1.5179    1.2847 N   0  0  0  0  0  0  0  0  0  0  0  0
    4.6166   -0.6312   -1.3885 C   0  0  0  0  0  0  0  0  0  0  0  0
    2.5731   -0.7055   -0.0911 C   0  0  0  0  0  0  0  0  0  0  0  0
    4.4777    0.7517   -1.5294 C   0  0  0  0  0  0  0  0  0  0  0  0
   -0.0242    0.8478    0.4538 C   0  0  0  0  0  0  0  0  0  0  0  0
   -2.0249   -1.9867   -1.0346 C   0  0  0  0  0  0  0  0  0  0  0  0
   -3.3161    1.3973    1.9840 N   0  0  0  0  0  0  0  0  0  0  0  0
    3.2654    2.7537   -1.1044 F   0  0  0  0  0  0  0  0  0  0  0  0
   -1.7046   -0.7754   -0.2183 C   0  0  0  0  0  0  0  0  0  0  0  0
    3.3852    1.4104   -0.9552 C   0  0  0  0  0  0  0  0  0  0  0  0
   -4.4648    0.5132    1.7045 C   0  0  0  0  0  0  0  0  0  0  0  0
    3.6674   -1.3582   -0.6665 C   0  0  0  0  0  0  0  0  0  0  0  0
   -2.6209   -0.1833    0.5489 C   0  0  0  0  0  0  0  0  0  0  0  0
  1 16  1  0
  1 18  1  0
  2 10  2  0
  2 14  1  0
  3  6  1  0
  3 12  2  0
  3 18  1  0
  4  5  1  0
  4 10  1  0
  5  8  2  0
  5 15  1  0
  6 10  1  0
  7  9  1  0
  7 17  2  0
  8 17  1  0
  9 15  2  0
 11 14  1  0
 12 16  1  0
 13 15  1  0
 14 18  2  0
M  END
