
     RDKit          3D

 27 30  0  0  0  0  0  0  0  0999 V2000
   -0.2530   -0.2460   -0.6704 C   0  0  2  0  0  0  0  0  0  0  0  0
   -2.5603    0.0198    0.5267 C   0  0  2  0  0  0  0  0  0  0  0  0
   -0.5380    0.9201    1.4465 O   0  0  0  0  0  0  0  0  0  0  0  0
    1.0830   -0.1507   -0.1759 O   0  0  0  0  0  0  0  0  0  0  0  0
   -4.7426   -0.9148   -0.3870 C   0  0  0  0  0  0  0  0  0  0  0  0
    0.8337    1.0167   -2.5873 C   0  0  0  0  0  0  0  0  0  0  0  0
    3.4757    1.2234    0.8730 N   0  0  0  0  0  0  0  0  0  0  0  0
   -3.3582    0.8945    1.5436 C   0  0  0  0  0  0  0  0  0  0  0  0
    5.1511   -0.4560    0.7418 C   0  0  0  0  0  0  0  0  0  0  0  0
   -0.3593    0.1412   -2.1890 C   0  0  1  0  0  0  0  0  0  0  0  0
    5.9804    0.2627    1.5953 C   0  0  0  0  0  0  0  0  0  0  0  0
    4.2232   -1.8155   -0.5880 C   0  0  0  0  0  0  0  0  0  0  0  0
    4.2817    1.9379    1.7150 C   0  0  0  0  0  0  0  0  0  0  0  0
    2.1695    0.3045   -2.2996 C   0  0  2  0  0  0  0  0  0  0  0  0
    2.5755   -0.4090   -3.4390 O   0  0  0  0  0  0  0  0  0  0  0  0
    5.5179    1.4587    2.0688 N   0  0  0  0  0  0  0  0  0  0  0  0
   -5.2836   -0.4890    0.9868 C   0  0  0  0  0  0  0  0  0  0  0  0
    3.3215   -0.8129   -0.4248 N   0  0  0  0  0  0  0  0  0  0  0  0
    3.9355    0.0352    0.4107 C   0  0  0  0  0  0  0  0  0  0  0  0
   -4.8212    0.8703    1.3111 N   0  0  0  0  0  0  0  0  0  0  0  0
   -0.3533   -1.0145   -2.9908 O   0  0  0  0  0  0  0  0  0  0  0  0
    5.3697   -1.6325    0.1243 N   0  0  0  0  0  0  0  0  0  0  0  0
   -5.5344    1.3895    2.4879 C   0  0  0  0  0  0  0  0  0  0  0  0
   -1.1748    0.6584    0.2168 C   0  0  1  0  0  0  0  0  0  0  0  0
   -3.4086   -0.2304   -0.7350 C   0  0  0  0  0  0  0  0  0  0  0  0
    2.0293   -0.6599   -1.0956 C   0  0  1  0  0  0  0  0  0  0  0  0
    7.2725   -0.2159    1.9687 N   0  0  0  0  0  0  0  0  0  0  0  0
  1  4  1  1
  1 10  1  0
  1 24  1  0
  2  8  1  1
  2 24  1  0
  2 25  1  0
 24  3  1  1
  4 26  1  0
  5 17  1  0
  5 25  1  0
  6 10  1  0
  6 14  1  0
  7 13  1  0
  7 19  2  0
  8 20  1  0
  9 11  2  0
  9 19  1  0
  9 22  1  0
 10 21  1  6
 11 16  1  0
 11 27  1  0
 12 18  1  0
 12 22  2  0
 13 16  2  0
 14 15  1  6
 14 26  1  0
 17 20  1  0
 18 19  1  0
 26 18  1  1
 20 23  1  0
M  END
