
     RDKit          3D

 22 25  0  0  0  0  0  0  0  0999 V2000
    1.3708    1.5651   -0.3114 C   0  0  0  0  0  0  0  0  0  0  0  0
    1.6190    2.9615   -0.4068 C   0  0  0  0  0  0  0  0  0  0  0  0
    2.3727    0.7178   -0.8492 C   0  0  0  0  0  0  0  0  0  0  0  0
   -3.5957   -1.4092   -1.2399 C   0  0  0  0  0  0  0  0  0  0  0  0
    0.1625    1.1374    0.3428 C   0  0  0  0  0  0  0  0  0  0  0  0
    5.0111   -0.9132   -1.1295 N   0  0  0  0  0  0  0  0  0  0  0  0
    3.1812    1.2045   -1.6879 O   0  0  0  0  0  0  0  0  0  0  0  0
    0.8044    3.8960    0.2188 C   0  0  0  0  0  0  0  0  0  0  0  0
   -0.3831   -0.1813    0.2555 C   0  0  0  0  0  0  0  0  0  0  0  0
   -0.2756    3.4730    0.9694 C   0  0  0  0  0  0  0  0  0  0  0  0
    1.7074   -1.4612    0.1728 C   0  0  0  0  0  0  0  0  0  0  0  0
   -2.7703    0.6381   -0.4060 C   0  0  0  0  0  0  0  0  0  0  0  0
   -2.1834   -1.6359   -0.7369 C   0  0  0  0  0  0  0  0  0  0  0  0
    3.7552   -1.3631   -0.6105 C   0  0  0  0  0  0  0  0  0  0  0  0
    2.3269   -2.6836    0.3222 C   0  0  0  0  0  0  0  0  0  0  0  0
   -1.9009   -0.4720    0.2226 C   0  0  1  0  0  0  0  0  0  0  0  0
   -3.8957    0.0155   -1.1084 N   0  0  0  0  0  0  0  0  0  0  0  0
    3.5814   -2.6144   -0.1474 N   0  0  0  0  0  0  0  0  0  0  0  0
   -2.4050   -0.8478    1.6369 C   0  0  0  0  0  0  0  0  0  0  0  0
   -0.5876    2.1207    1.0349 C   0  0  0  0  0  0  0  0  0  0  0  0
    2.5930   -0.5996   -0.4368 C   0  0  0  0  0  0  0  0  0  0  0  0
    0.3841   -1.2961    0.3287 N   0  0  0  0  0  0  0  0  0  0  0  0
  1  2  2  0
  1  3  1  0
  1  5  1  0
  2  8  1  0
  3  7  2  0
  3 21  1  0
  4 13  1  0
  4 17  1  0
  5  9  1  0
  5 20  2  0
  6 14  1  0
  8 10  2  0
  9 16  1  0
  9 22  2  0
 10 20  1  0
 11 15  2  0
 11 21  1  0
 11 22  1  0
 12 16  1  0
 12 17  1  0
 13 16  1  0
 14 18  1  0
 14 21  2  0
 15 18  1  0
 16 19  1  1
M  END
