
     RDKit          3D

 27 33  0  0  0  0  0  0  0  0999 V2000
   94.2402   71.3414   -5.2345 C   0  0  0  0  0  0  0  0  0  0  0  0
   92.3697   72.2115   -4.9299 C   0  0  0  0  0  0  0  0  0  0  0  0
   91.5547   67.6994   -3.8609 C   0  0  0  0  0  0  0  0  0  0  0  0
   93.0678   73.3634   -7.4110 C   0  0  0  0  0  0  0  0  0  0  0  0
   91.3611   68.4361   -3.0298 C   0  0  0  0  0  0  0  0  0  0  0  0
   90.8504   67.8087   -1.5439 C   0  0  0  0  0  0  0  0  0  0  0  0
   92.5777   73.7699   -5.9924 C   0  0  0  0  0  0  0  0  0  0  0  0
   90.0823   68.7860   -3.4232 C   0  0  0  0  0  0  0  0  0  0  0  0
   93.8820   70.4068   -4.0987 C   0  0  0  0  0  0  0  0  0  0  0  0
   96.9332   69.4451   -5.7555 C   0  0  0  0  0  0  0  0  0  0  0  0
   95.8956   70.0833   -4.8396 C   0  0  0  0  0  0  0  0  0  0  0  0
   91.9566   69.5806   -3.3413 C   0  0  0  0  0  0  0  0  0  0  0  0
   92.8365   70.2703   -4.0255 C   0  0  0  0  0  0  0  0  0  0  0  0
   88.7651   68.0235   -3.1646 C   0  0  0  0  0  0  0  0  0  0  0  0
   91.3953   72.9127   -3.4923 C   0  0  0  0  0  0  0  0  0  0  0  0
   95.0011   69.4879   -4.7499 C   0  0  0  0  0  0  0  0  0  0  0  0
   96.4015   68.5590   -6.0454 O   0  0  0  0  0  0  0  0  0  0  0  0
   95.2145   71.2421   -5.7277 C   0  0  0  0  0  0  0  0  0  0  0  0
   89.4897   70.1852   -4.0381 C   0  0  0  0  0  0  0  0  0  0  0  0
   91.7625   71.2018   -5.4004 C   0  0  0  0  0  0  0  0  0  0  0  0
   93.3239   72.1183   -7.2971 C   0  0  0  0  0  0  0  0  0  0  0  0
   94.4858   71.4746   -5.9682 C   0  0  0  0  0  0  0  0  0  0  0  0
   91.8331   70.4640   -4.2487 C   0  0  0  0  0  0  0  0  0  0  0  0
   89.7892   69.1202   -3.6899 C   0  0  0  0  0  0  0  0  0  0  0  0
   90.3180   70.8320   -5.3218 C   0  0  0  0  0  0  0  0  0  0  0  0
   92.2437   69.4167   -2.7247 C   0  0  0  0  0  0  0  0  0  0  0  0
   95.6089   70.0226   -5.1158 C   0  0  0  0  0  0  0  0  0  0  0  0
  1  9  1  0
  1 18  1  0
  1 22  1  0
  2 15  1  0
  2 20  1  0
  3  5  1  0
  4  7  1  0
  4 21  1  0
  5  6  1  0
  5  8  1  0
  5 12  1  0
  5 24  1  0
  5 26  1  0
  8 14  1  0
  8 24  1  0
  9 13  1  0
  9 16  1  0
 10 11  1  0
 10 17  1  0
 11 16  1  0
 11 18  1  0
 11 27  1  0
 12 23  1  0
 12 26  1  0
 13 23  1  0
 14 24  1  0
 16 27  1  0
 18 22  1  0
 19 24  1  0
 19 25  1  0
 20 23  1  0
 20 25  1  0
 21 22  1  0
M  END
$$$$
