
     RDKit          3D

 16 17  0  0  0  0  0  0  0  0999 V2000
   -6.1321   20.2547   23.7192 C   0  0  0  0  0  0  0  0  0  0  0  0
   -3.1595   22.2926   21.9584 Cl  0  0  0  0  0  0  0  0  0  0  0  0
   -3.4675   19.8220   22.9840 C   0  0  0  0  0  0  0  0  0  0  0  0
   -8.7067   16.1754   26.5505 N   0  0  0  0  0  0  0  0  0  0  0  0
   -4.2074   18.8194   23.6094 C   0  0  0  0  0  0  0  0  0  0  0  0
   -6.0636   16.6134   24.4507 N   0  0  0  0  0  0  0  0  0  0  0  0
   -6.3108   17.9540   24.6581 C   0  0  0  0  0  0  0  0  0  0  0  0
   -5.3953   21.2606   23.0938 C   0  0  0  0  0  0  0  0  0  0  0  0
   -6.9038   15.7769   25.0838 N   0  0  0  0  0  0  0  0  0  0  0  0
   -7.6962   16.5919   25.7671 C   0  0  0  0  0  0  0  0  0  0  0  0
   -7.9283   19.0291   26.1566 N   0  0  0  0  0  0  0  0  0  0  0  0
   -4.0670   21.0509   22.7293 C   0  0  0  0  0  0  0  0  0  0  0  0
   -3.6068   17.6389   23.8287 F   0  0  0  0  0  0  0  0  0  0  0  0
   -5.5433   19.0144   23.9995 C   0  0  0  0  0  0  0  0  0  0  0  0
   -7.3562   17.9547   25.5598 C   0  0  0  0  0  0  0  0  0  0  0  0
   -5.9945   22.4344   22.8461 F   0  0  0  0  0  0  0  0  0  0  0  0
  1  8  1  0
  1 14  2  0
  2 12  1  0
  3  5  2  0
  3 12  1  0
  4 10  1  0
  5 13  1  0
  5 14  1  0
  6  7  1  0
  6  9  1  0
  7 14  1  0
  7 15  2  0
  8 12  2  0
  8 16  1  0
  9 10  2  0
 10 15  1  0
 11 15  1  0
M  END
$$$$
