
     RDKit          3D

 11 10  0  0  0  0  0  0  0  0999 V2000
   -4.7970   21.6412   21.4500 Cl  0  0  0  0  0  0  0  0  0  0  0  0
   -8.1538   15.1248   26.1503 N   0  0  0  0  0  0  0  0  0  0  0  0
   -6.3238   15.9915   25.0227 N   0  0  0  0  0  0  0  0  0  0  0  0
   -5.1637   17.0515   25.0892 C   0  0  0  0  0  0  0  0  0  0  0  0
   -4.2958   20.4817   22.6282 C   0  0  0  0  0  0  0  0  0  0  0  0
   -2.9224   20.4803   22.9924 Cl  0  0  0  0  0  0  0  0  0  0  0  0
   -5.6398   18.3830   25.4234 C   0  0  0  0  0  0  0  0  0  0  0  0
   -4.2575   16.9355   23.7255 Cl  0  0  0  0  0  0  0  0  0  0  0  0
   -5.1248   19.6168   24.7115 C   0  0  0  0  0  0  0  0  0  0  0  0
   -7.1134   15.9728   25.9161 C   0  0  0  0  0  0  0  0  0  0  0  0
   -5.5808   19.6460   23.0271 S   0  0  0  0  0  0  0  0  0  0  0  0
  1  5  1  0
  2 10  1  0
  3  4  1  0
  3 10  1  0
  4  7  1  0
  4  8  1  0
  5  6  1  0
  5 11  1  0
  7  9  1  0
  9 11  1  0
M  END
$$$$
