
     RDKit          3D

 46 50  0  0  0  0  0  0  0  0999 V2000
    6.6059  -54.8869    6.1959 C   0  0  0  0  0  0  0  0  0  0  0  0
   12.3839  -58.7391   -0.4485 C   0  0  0  0  0  0  0  0  0  0  0  0
   15.1992  -58.6284    0.7627 C   0  0  0  0  0  0  0  0  0  0  0  0
    4.2366  -55.9964    6.8296 C   0  0  0  0  0  0  0  0  0  0  0  0
    7.0087  -52.2135    4.2555 O   0  0  0  0  0  0  0  0  0  0  0  0
   13.4916  -53.9631    4.6821 C   0  0  0  0  0  0  0  0  0  0  0  0
   10.9377  -52.2669    1.7549 N   0  0  0  0  0  0  0  0  0  0  0  0
    8.6578  -51.7938    1.9660 C   0  0  0  0  0  0  0  0  0  0  0  0
   13.1356  -59.3046    1.7817 F   0  0  0  0  0  0  0  0  0  0  0  0
   16.1599  -56.9380    2.1577 C   0  0  0  0  0  0  0  0  0  0  0  0
   11.2474  -54.6483    9.1094 N   0  0  0  0  0  0  0  0  0  0  0  0
   11.8870  -54.0564    3.2117 O   0  0  0  0  0  0  0  0  0  0  0  0
   14.5537  -54.8924    2.2986 C   0  0  0  0  0  0  0  0  0  0  0  0
   14.8085  -55.5671    3.5299 N   0  0  0  0  0  0  0  0  0  0  0  0
    9.7875  -52.7853    7.3095 C   0  0  0  0  0  0  0  0  0  0  0  0
   17.5426  -55.5531    4.5535 C   0  0  0  0  0  0  0  0  0  0  0  0
    9.1844  -53.3870    8.4267 C   0  0  0  0  0  0  0  0  0  0  0  0
   14.0081  -53.5256    2.5316 C   0  0  0  0  0  0  0  0  0  0  0  0
    9.8205  -51.6328    1.2462 C   0  0  0  0  0  0  0  0  0  0  0  0
   14.1106  -59.6924    0.9390 C   0  0  0  0  0  0  0  0  0  0  0  0
   12.0884  -52.4843    6.0396 C   0  0  0  0  0  0  0  0  0  0  0  0
    9.8330  -54.3467    9.2361 C   0  0  0  0  0  0  0  0  0  0  0  0
    8.9754  -52.0345    6.3670 C   0  0  0  0  0  0  0  0  0  0  0  0
   14.1864  -55.2108    4.6773 C   0  0  0  0  0  0  0  0  0  0  0  0
   10.8863  -53.2381    2.7874 C   0  0  0  0  0  0  0  0  0  0  0  0
    4.5995  -55.8675    5.5277 C   0  0  0  0  0  0  0  0  0  0  0  0
   16.7081  -56.6986    4.5376 O   0  0  0  0  0  0  0  0  0  0  0  0
   15.9234  -58.3575    2.0898 C   0  0  0  0  0  0  0  0  0  0  0  0
   13.4690  -59.7592   -0.4207 C   0  0  0  0  0  0  0  0  0  0  0  0
   11.8787  -53.9661    8.0495 C   0  0  0  0  0  0  0  0  0  0  0  0
    5.7872  -55.3133    5.1936 C   0  0  0  0  0  0  0  0  0  0  0  0
   11.2232  -53.0419    7.1427 C   0  0  0  0  0  0  0  0  0  0  0  0
    7.9040  -54.4241    5.8040 C   0  0  0  0  0  0  0  0  0  0  0  0
   13.2511  -53.3200    5.8189 N   0  0  0  0  0  0  0  0  0  0  0  0
    7.9996  -52.6980    4.3551 C   0  0  0  0  0  0  0  0  0  0  0  0
    8.2391  -53.0448    5.5222 N   0  0  0  0  0  0  0  0  0  0  0  0
   11.5409  -59.1517    0.5177 O   0  0  0  0  0  0  0  0  0  0  0  0
   12.9193  -60.9642   -0.8125 O   0  0  0  0  0  0  0  0  0  0  0  0
   14.5575  -60.9211    1.3805 O   0  0  0  0  0  0  0  0  0  0  0  0
    5.0097  -55.6544    7.8947 C   0  0  0  0  0  0  0  0  0  0  0  0
    6.1999  -55.0521    7.5139 C   0  0  0  0  0  0  0  0  0  0  0  0
   15.6797  -56.6553    3.5178 C   0  0  0  0  0  0  0  0  0  0  0  0
   14.2305  -55.9385    5.7162 O   0  0  0  0  0  0  0  0  0  0  0  0
    9.6402  -53.3391    3.4581 C   0  0  0  0  0  0  0  0  0  0  0  0
   13.1035  -53.3855    3.5214 C   0  0  0  0  0  0  0  0  0  0  0  0
    8.8291  -52.8819    3.0669 C   0  0  0  0  0  0  0  0  0  0  0  0
  1 31  2  0
  1 33  1  0
  1 41  1  0
  2 29  1  0
  2 37  1  0
  3 20  1  0
  3 28  1  0
  4 26  2  0
  4 40  1  0
  5 35  2  0
  6 24  1  0
  6 34  2  3
  6 45  1  0
  7 19  1  0
  7 25  2  0
  8 19  2  0
  8 46  1  0
  9 20  1  0
 10 28  1  0
 10 42  1  0
 11 22  1  0
 11 30  2  0
 12 25  1  0
 12 45  1  0
 13 14  1  0
 13 18  1  0
 14 24  1  0
 14 42  1  0
 15 17  1  0
 15 23  1  0
 15 32  2  0
 16 27  1  0
 17 22  2  0
 18 45  1  0
 20 29  1  0
 20 39  1  0
 21 32  1  0
 21 34  1  0
 23 36  1  0
 24 43  2  0
 25 44  1  0
 26 31  1  0
 27 42  1  0
 29 38  1  0
 30 32  1  0
 33 36  1  0
 35 36  1  0
 35 46  1  0
 40 41  2  0
 44 46  2  0
M  END
$$$$
