
     RDKit          3D

 11 15  0  0  0  0  0  0  0  0999 V2000
   14.4717  -60.1447    0.6188 C   0  0  0  0  0  0  0  0  0  0  0  0
   15.2046  -58.0795    1.7583 O   0  0  0  0  0  0  0  0  0  0  0  0
   14.3643  -61.3438    1.5070 O   0  0  0  0  0  0  0  0  0  0  0  0
   14.1257  -57.9313   -0.7824 C   0  0  0  0  0  0  0  0  0  0  0  0
   13.6599  -61.0395   -1.1961 O   0  0  0  0  0  0  0  0  0  0  0  0
   14.2436  -60.4275    2.2154 C   0  0  0  0  0  0  0  0  0  0  0  0
   14.1185  -58.9877    1.5376 C   0  0  0  0  0  0  0  0  0  0  0  0
   13.6185  -59.0764    0.0672 C   0  0  0  0  0  0  0  0  0  0  0  0
   15.9378  -60.2735    0.1506 O   0  0  0  0  0  0  0  0  0  0  0  0
   13.4155  -60.2341   -0.3780 C   0  0  0  0  0  0  0  0  0  0  0  0
   12.2180  -59.5325   -0.2789 O   0  0  0  0  0  0  0  0  0  0  0  0
  1  3  1  0
  1  6  1  0
  1  7  1  0
  1  8  1  0
  1  9  1  0
  1 10  1  0
  2  7  1  0
  3  6  1  0
  4  8  1  0
  5 10  2  0
  6  7  1  0
  7  8  1  0
  8 10  1  0
  8 11  1  0
 10 11  1  0
M  END
$$$$
