
     RDKit          3D

  9  8  0  0  0  0  0  0  0  0999 V2000
   15.4447  -58.1792    2.6561 O   0  0  0  0  0  0  0  0  0  0  0  0
   13.9186  -59.5165    0.7693 C   0  0  0  0  0  0  0  0  0  0  0  0
   15.3881  -59.2568    0.4911 C   0  0  0  0  0  0  0  0  0  0  0  0
   16.1577  -60.4203    0.5866 O   0  0  0  0  0  0  0  0  0  0  0  0
   12.4763  -60.0255   -1.0194 O   0  0  0  0  0  0  0  0  0  0  0  0
   15.9546  -58.1823    1.3447 C   0  0  0  0  0  0  0  0  0  0  0  0
   13.5906  -60.0627    2.0076 O   0  0  0  0  0  0  0  0  0  0  0  0
   13.9928  -61.4935   -0.4925 O   0  0  0  0  0  0  0  0  0  0  0  0
   13.4628  -60.4259   -0.2695 C   0  0  0  0  0  0  0  0  0  0  0  0
  1  6  1  0
  2  3  1  0
  2  7  1  0
  2  9  1  0
  3  4  1  0
  3  6  1  0
  5  9  1  0
  8  9  2  0
M  END
$$$$
