
     RDKit          3D

 27 30  0  0  0  0  0  0  0  0999 V2000
   14.1719  -59.5999    2.5167 O   0  0  0  0  0  0  0  0  0  0  0  0
   14.4961  -54.8398    2.5967 C   0  0  0  0  0  0  0  0  0  0  0  0
   11.8677  -52.7933    7.1438 C   0  0  0  0  0  0  0  0  0  0  0  0
   12.8216  -53.3564    2.1549 C   0  0  0  0  0  0  0  0  0  0  0  0
   13.7242  -53.1561    5.7315 O   0  0  0  0  0  0  0  0  0  0  0  0
   15.4551  -61.3078    0.1404 O   0  0  0  0  0  0  0  0  0  0  0  0
   15.8391  -56.5887    4.4930 C   0  0  0  0  0  0  0  0  0  0  0  0
   13.6895  -53.5291    4.4224 C   0  0  0  0  0  0  0  0  0  0  0  0
   16.1988  -58.2003    2.9137 C   0  0  0  0  0  0  0  0  0  0  0  0
   13.0558  -60.7035   -1.4340 C   0  0  0  0  0  0  0  0  0  0  0  0
   13.2511  -62.0152   -1.2570 O   0  0  0  0  0  0  0  0  0  0  0  0
   13.6491  -54.4202    1.6459 C   0  0  0  0  0  0  0  0  0  0  0  0
   15.3848  -56.7811    0.7012 S   0  0  0  0  0  0  0  0  0  0  0  0
   11.3313  -54.4240    8.9271 C   0  0  0  0  0  0  0  0  0  0  0  0
   14.6942  -60.3504    0.4089 C   0  0  0  0  0  0  0  0  0  0  0  0
   15.3877  -56.9135    3.3398 N   0  0  0  0  0  0  0  0  0  0  0  0
   13.1587  -54.7615    7.4532 C   0  0  0  0  0  0  0  0  0  0  0  0
   15.3355  -55.1863    4.9181 C   0  0  0  0  0  0  0  0  0  0  0  0
   14.5287  -54.5230    4.0222 C   0  0  0  0  0  0  0  0  0  0  0  0
   12.9252  -53.5387    6.7531 C   0  0  0  0  0  0  0  0  0  0  0  0
   11.0787  -53.2253    8.2448 C   0  0  0  0  0  0  0  0  0  0  0  0
   12.8538  -52.9708    3.4737 C   0  0  0  0  0  0  0  0  0  0  0  0
   15.8490  -58.3334    1.4031 C   0  0  0  0  0  0  0  0  0  0  0  0
   15.4527  -55.9956    2.2667 C   0  0  0  0  0  0  0  0  0  0  0  0
   12.4067  -55.2058    8.5131 C   0  0  0  0  0  0  0  0  0  0  0  0
   13.5728  -60.0649   -0.2201 N   0  0  0  0  0  0  0  0  0  0  0  0
   14.9280  -59.4339    1.3386 C   0  0  0  0  0  0  0  0  0  0  0  0
  1 27  2  0
  2 12  2  0
  2 19  1  0
  2 24  1  0
  3 20  2  0
  3 21  1  0
  4 12  1  0
  4 22  1  0
  5  8  1  0
  5 20  1  0
  6 15  2  0
  7 16  1  0
  7 18  1  0
  8 19  1  0
  8 22  2  0
  9 16  1  0
  9 23  1  0
 10 11  1  0
 10 26  1  0
 13 23  1  0
 13 24  1  0
 14 21  2  0
 14 25  1  0
 15 26  1  0
 15 27  1  0
 16 24  1  0
 17 20  1  0
 17 25  2  0
 18 19  2  0
 23 27  1  0
M  END
$$$$
