
     RDKit          3D

 29 32  0  0  0  0  0  0  0  0999 V2000
   17.6543  -56.9723    3.5122 O   0  0  0  0  0  0  0  0  0  0  0  0
   16.1088  -58.5577    2.6817 C   0  0  0  0  0  0  0  0  0  0  0  0
   16.2638  -57.1225    3.4962 C   0  0  0  0  0  0  0  0  0  0  0  0
   12.9858  -52.4361    7.6117 C   0  0  0  0  0  0  0  0  0  0  0  0
   12.9878  -54.0526    4.1734 C   0  0  0  0  0  0  0  0  0  0  0  0
   13.9011  -61.0324   -0.3382 O   0  0  0  0  0  0  0  0  0  0  0  0
   13.3602  -59.9174    0.7172 P   0  0  0  0  0  0  0  0  0  0  0  0
   13.2569  -51.8594    9.9615 F   0  0  0  0  0  0  0  0  0  0  0  0
   13.4154  -54.6909    7.0450 C   0  0  0  0  0  0  0  0  0  0  0  0
   13.4730  -55.6216    1.9362 C   0  0  0  0  0  0  0  0  0  0  0  0
   13.6548  -54.0117    9.2955 C   0  0  0  0  0  0  0  0  0  0  0  0
   15.6219  -60.4692    0.5431 C   0  0  0  0  0  0  0  0  0  0  0  0
   12.0601  -54.2163    3.1905 C   0  0  0  0  0  0  0  0  0  0  0  0
   14.2536  -60.8963   -0.6974 C   0  0  0  0  0  0  0  0  0  0  0  0
   15.2522  -59.2667    3.4097 O   0  0  0  0  0  0  0  0  0  0  0  0
   13.0559  -53.4538    6.6938 C   0  0  0  0  0  0  0  0  0  0  0  0
   14.1741  -54.7338    4.0020 C   0  0  0  0  0  0  0  0  0  0  0  0
   13.5654  -56.5806    0.5095 Cl  0  0  0  0  0  0  0  0  0  0  0  0
   15.6832  -56.0802    2.5149 C   0  0  0  0  0  0  0  0  0  0  0  0
   12.7135  -53.1002    5.2627 C   0  0  0  0  0  0  0  0  0  0  0  0
   14.9429  -59.2101    0.5837 C   0  0  0  0  0  0  0  0  0  0  0  0
   15.4128  -56.7813    1.2255 C   0  0  0  0  0  0  0  0  0  0  0  0
   12.4172  -59.2782   -0.1551 O   0  0  0  0  0  0  0  0  0  0  0  0
   13.7110  -54.9799    8.3346 C   0  0  0  0  0  0  0  0  0  0  0  0
   15.5092  -58.1634    1.4506 N   0  0  0  0  0  0  0  0  0  0  0  0
   12.2756  -55.0014    2.0825 C   0  0  0  0  0  0  0  0  0  0  0  0
   14.3969  -55.5082    2.8942 C   0  0  0  0  0  0  0  0  0  0  0  0
   13.3037  -52.7701    8.8974 C   0  0  0  0  0  0  0  0  0  0  0  0
   13.0203  -60.1301    2.0593 O   0  0  0  0  0  0  0  0  0  0  0  0
  1  3  1  0
  2  3  1  0
  2 15  1  0
  2 25  1  0
  3 19  1  0
  4 16  1  0
  4 28  2  0
  5 13  1  0
  5 17  2  0
  5 20  1  0
  6  7  1  0
  6 14  1  0
  7 21  1  0
  7 23  2  0
  7 29  1  0
  8 28  1  0
  9 16  2  0
  9 24  1  0
 10 18  1  0
 10 26  1  0
 10 27  2  0
 11 24  2  0
 11 28  1  0
 12 21  1  0
 13 26  2  0
 16 20  1  0
 17 27  1  0
 18 22  1  0
 19 22  1  0
 19 27  1  0
 21 25  1  0
 22 25  1  0
M  END
$$$$
