
     RDKit          3D

 19 21  0  0  0  0  0  0  0  0999 V2000
   -8.0388   19.3067   25.5163 C   0  0  0  0  0  0  0  0  0  0  0  0
   -9.3360   17.2677   26.2478 N   0  0  0  0  0  0  0  0  0  0  0  0
   -7.3478   17.2703   23.2571 C   0  0  0  0  0  0  0  0  0  0  0  0
   -5.1375   21.4901   21.9742 C   0  0  0  0  0  0  0  0  0  0  0  0
   -6.0534   20.7779   22.8778 C   0  0  0  0  0  0  0  0  0  0  0  0
   -6.3804   17.4465   24.4098 C   0  0  0  0  0  0  0  0  0  0  0  0
   -7.4232   15.7323   25.6638 O   0  0  0  0  0  0  0  0  0  0  0  0
   -3.8451   20.3287   23.4332 C   0  0  0  0  0  0  0  0  0  0  0  0
   -4.5545   18.5811   25.4074 C   0  0  0  0  0  0  0  0  0  0  0  0
   -7.0747   16.9186   25.5828 C   0  0  0  0  0  0  0  0  0  0  0  0
   -8.1114   17.7565   25.6785 C   0  0  0  0  0  0  0  0  0  0  0  0
   -5.8027   18.9086   24.6194 C   0  0  0  0  0  0  0  0  0  0  0  0
   -5.2077   16.6142   24.2425 C   0  0  0  0  0  0  0  0  0  0  0  0
   -5.1737   19.6192   23.3028 C   0  0  0  0  0  0  0  0  0  0  0  0
   -6.5175   19.8190   25.6550 C   0  0  0  0  0  0  0  0  0  0  0  0
   -4.0825   17.4414   24.6747 N   0  0  0  0  0  0  0  0  0  0  0  0
   -3.7720   21.0064   22.0952 C   0  0  0  0  0  0  0  0  0  0  0  0
   -2.7034   22.0213   21.9154 C   0  0  0  0  0  0  0  0  0  0  0  0
   -5.4398   22.3207   21.1762 O   0  0  0  0  0  0  0  0  0  0  0  0
  1 11  1  0
  1 15  1  0
  2 11  1  0
  3  6  1  0
  4  5  1  0
  4 17  1  0
  4 19  2  0
  5 14  1  0
  6 10  1  0
  6 12  1  0
  6 13  1  0
  7 10  1  0
  8 14  1  0
  8 17  1  0
  9 12  1  0
  9 16  1  0
 10 11  1  0
 12 14  1  0
 12 15  1  0
 13 16  1  0
 17 18  1  0
M  END
$$$$
