
     RDKit          3D

 30 36  0  0  0  0  0  0  0  0999 V2000
   -4.6172   20.2683   24.8058 C   0  0  0  0  0  0  0  0  0  0  0  0
   -8.5308   17.8699   24.5497 C   0  0  0  0  0  0  0  0  0  0  0  0
   -5.2052   15.6235   24.4718 O   0  0  0  0  0  0  0  0  0  0  0  0
   -4.5365   19.4691   23.6404 C   0  0  0  0  0  0  0  0  0  0  0  0
   -2.2879   19.0947   24.0449 C   0  0  0  0  0  0  0  0  0  0  0  0
   -6.4203   21.5903   22.4975 C   0  0  0  0  0  0  0  0  0  0  0  0
   -6.6357   19.3744   21.7657 C   0  0  0  0  0  0  0  0  0  0  0  0
   -5.6530   18.9160   23.6428 C   0  0  0  0  0  0  0  0  0  0  0  0
   -9.5475   16.9395   26.7627 C   0  0  0  0  0  0  0  0  0  0  0  0
   -7.2124   17.2905   24.9850 C   0  0  0  0  0  0  0  0  0  0  0  0
   -8.4471   19.3435   24.9739 C   0  0  0  0  0  0  0  0  0  0  0  0
   -6.9203   18.0010   26.2701 C   0  0  0  0  0  0  0  0  0  0  0  0
   -5.9729   18.2378   22.1449 C   0  0  0  0  0  0  0  0  0  0  0  0
   -8.7764   17.0875   23.2711 C   0  0  0  0  0  0  0  0  0  0  0  0
   -7.7509   15.8609   25.0947 C   0  0  0  0  0  0  0  0  0  0  0  0
   -3.5250   19.6518   21.2835 C   0  0  0  0  0  0  0  0  0  0  0  0
   -9.6076   17.2864   25.3353 C   0  0  0  0  0  0  0  0  0  0  0  0
   -4.0277   21.6505   22.5288 C   0  0  0  0  0  0  0  0  0  0  0  0
   -2.8959   22.0742   22.4403 O   0  0  0  0  0  0  0  0  0  0  0  0
   -8.2139   15.7280   23.5395 C   0  0  0  0  0  0  0  0  0  0  0  0
   -3.6916   17.3478   24.2012 C   0  0  0  0  0  0  0  0  0  0  0  0
   -5.1505   22.4773   22.8499 C   0  0  0  0  0  0  0  0  0  0  0  0
   -9.0051   16.0045   25.7700 C   0  0  0  0  0  0  0  0  0  0  0  0
   -5.7733   20.4902   21.7228 C   0  0  0  0  0  0  0  0  0  0  0  0
   -9.7187   14.7917   25.9113 O   0  0  0  0  0  0  0  0  0  0  0  0
   -4.3762   20.1874   22.2635 C   0  0  0  0  0  0  0  0  0  0  0  0
   -5.0181   16.7799   24.3375 C   0  0  0  0  0  0  0  0  0  0  0  0
   -7.5728   19.3387   26.1886 C   0  0  0  0  0  0  0  0  0  0  0  0
   -3.6461   18.6260   23.9452 C   0  0  0  0  0  0  0  0  0  0  0  0
   -6.1515   17.7024   24.1797 C   0  0  0  0  0  0  0  0  0  0  0  0
  1  4  1  0
  2 10  1  0
  2 11  1  0
  2 14  1  0
  2 17  1  0
  3 27  2  0
  4  8  1  0
  4 26  1  0
  4 29  1  0
  5 29  1  0
  6 22  1  0
  6 24  1  0
  7 13  1  0
  7 24  1  0
  8 13  1  0
  8 30  1  0
  9 17  1  0
  9 23  1  0
 10 12  1  0
 10 15  1  0
 10 30  1  0
 11 28  1  0
 12 28  1  0
 14 20  1  0
 15 20  1  0
 15 23  1  0
 16 26  1  0
 17 23  1  0
 18 19  2  0
 18 22  1  0
 18 26  1  0
 21 27  1  0
 21 29  2  0
 23 25  1  0
 24 26  1  0
 27 30  1  0
M  END
$$$$
