
     RDKit          3D

 21 24  0  0  0  0  0  0  0  0999 V2000
   10.6167    7.8648   18.3340 C   0  0  0  0  0  0  0  0  0  0  0  0
    3.3435    8.8754   24.3116 C   0  0  0  0  0  0  0  0  0  0  0  0
   12.7591    8.3883   17.4415 C   0  0  0  0  0  0  0  0  0  0  0  0
    2.4877    9.0759   23.7652 O   0  0  0  0  0  0  0  0  0  0  0  0
    8.0923   10.4752   21.6097 C   0  0  0  0  0  0  0  0  0  0  0  0
   11.1658    7.9679   19.6275 C   0  0  0  0  0  0  0  0  0  0  0  0
    6.0254   10.2157   23.0035 C   0  0  0  0  0  0  0  0  0  0  0  0
    9.2408    9.9941   21.0159 N   0  0  0  0  0  0  0  0  0  0  0  0
   10.2926    7.7180   20.7226 N   0  0  0  0  0  0  0  0  0  0  0  0
   14.9125    8.9293   18.9506 Cl  0  0  0  0  0  0  0  0  0  0  0  0
    5.6086    9.5767   24.2863 N   0  0  0  0  0  0  0  0  0  0  0  0
   13.2557    8.5151   18.7362 C   0  0  0  0  0  0  0  0  0  0  0  0
    4.5024    9.4017   24.9427 C   0  0  0  0  0  0  0  0  0  0  0  0
    7.4952    8.9656   22.3211 C   0  0  0  0  0  0  0  0  0  0  0  0
   11.4274    8.0562   17.2269 C   0  0  0  0  0  0  0  0  0  0  0  0
    6.1816   10.8870   24.4557 C   0  0  0  0  0  0  0  0  0  0  0  0
    9.3341    8.6535   21.2104 C   0  0  0  0  0  0  0  0  0  0  0  0
    3.7398    9.3930   25.8891 C   0  0  0  0  0  0  0  0  0  0  0  0
    8.4909    8.1387   21.8862 N   0  0  0  0  0  0  0  0  0  0  0  0
   12.4808    8.3092   19.8570 C   0  0  0  0  0  0  0  0  0  0  0  0
    7.1500    9.7022   22.3430 C   0  0  0  0  0  0  0  0  0  0  0  0
  1  6  4  0
  1 15  4  0
  2  4  2  0
  2 13  1  0
  2 18  1  0
  3 12  4  0
  3 15  4  0
  5  8  4  0
  5 21  4  0
  6  9  1  0
  6 20  4  0
  7 11  1  0
  7 16  1  0
  7 21  1  0
  8 17  4  0
  9 17  1  0
 10 12  1  0
 11 13  1  0
 11 16  1  0
 12 20  4  0
 13 18  2  0
 14 19  4  0
 14 21  4  0
 17 19  4  0
M  END
$$$$
