
     RDKit          3D

 10 10  0  0  0  0  0  0  0  0999 V2000
   -5.2016   76.3032    4.0676 C   0  0  0  0  0  0  0  0  0  0  0  0
   -5.3284   73.9955    3.9795 N   0  0  0  0  0  0  0  0  0  0  0  0
   -1.8909   78.0821    6.8382 S   0  0  0  0  0  0  0  0  0  0  0  0
   -4.6330   74.9859    4.2650 C   0  0  0  0  0  0  0  0  0  0  0  0
   -2.4559   76.0104    5.0201 C   0  0  0  0  0  0  0  0  0  0  0  0
   -4.2742   77.1007    6.2367 C   0  0  0  0  0  0  0  0  0  0  0  0
   -3.2352   74.7568    4.7545 C   0  0  0  0  0  0  0  0  0  0  0  0
   -4.8428   77.2538    4.9047 N   0  0  0  0  0  0  0  0  0  0  0  0
   -2.8692   76.6607    6.3172 C   0  0  2  0  0  0  0  0  0  0  0  0
   -6.0326   76.6145    3.1786 O   0  0  0  0  0  0  0  0  0  0  0  0
  1  4  1  0
  1  8  1  0
  1 10  2  0
  2  4  2  0
  9  3  1  6
  4  7  1  0
  5  7  1  0
  5  9  1  0
  6  8  1  0
  6  9  1  0
M  END
