
     RDKit          3D

 18 20  0  0  0  0  0  0  0  0999 V2000
   25.0914   22.5537   33.5692 O   0  0  0  0  0  0  0  0  0  0  0  0
   25.8672   18.3174   36.0612 C   0  0  0  0  0  0  0  0  0  0  0  0
   23.5162   19.4968   31.8192 C   0  0  0  0  0  0  0  0  0  0  0  0
   24.5516   17.3594   31.9991 C   0  0  0  0  0  0  0  0  0  0  0  0
   25.0659   20.3225   34.3153 C   0  0  0  0  0  0  0  0  0  0  0  0
   22.9800   19.1471   30.5693 C   0  0  0  0  0  0  0  0  0  0  0  0
   24.5885   21.4363   33.4775 C   0  0  0  0  0  0  0  0  0  0  0  0
   24.0198   16.9957   30.7540 C   0  0  0  0  0  0  0  0  0  0  0  0
   25.6848   20.6538   35.5341 C   0  0  0  0  0  0  0  0  0  0  0  0
   26.0854   19.6459   36.3990 C   0  0  0  0  0  0  0  0  0  0  0  0
   23.2288   17.8875   30.0415 C   0  0  0  0  0  0  0  0  0  0  0  0
   25.2664   17.9951   34.8370 C   0  0  0  0  0  0  0  0  0  0  0  0
   23.2236   21.1367   32.3921 S   0  0  0  0  0  0  0  0  0  0  0  0
   24.3042   18.6200   32.5834 C   0  0  0  0  0  0  0  0  0  0  0  0
   23.3574   22.0261   31.2536 O   0  0  0  0  0  0  0  0  0  0  0  0
   26.8303   20.0396   37.8961 Cl  0  0  0  0  0  0  0  0  0  0  0  0
   22.0284   21.0921   33.2132 O   0  0  0  0  0  0  0  0  0  0  0  0
   24.8710   18.9853   33.9119 C   0  0  0  0  0  0  0  0  0  0  0  0
  1  7  2  0
  2 10  2  0
  2 12  1  0
  3  6  2  0
  3 13  1  0
  3 14  1  0
  4  8  1  0
  4 14  2  0
  5  7  1  0
  5  9  2  0
  5 18  1  0
  6 11  1  0
  7 13  1  0
  8 11  2  0
  9 10  1  0
 10 16  1  0
 12 18  2  0
 13 15  2  0
 13 17  2  0
 14 18  1  0
M  END
$$$$
