
     RDKit          3D

 14 14  0  0  0  0  0  0  0  0999 V2000
   54.5741   14.6084   81.8198 C   0  0  0  0  0  0  0  0  0  0  0  0
   54.1664   15.7918   82.3269 C   0  0  0  0  0  0  0  0  0  0  0  0
   52.5045   17.0533   83.3876 C   0  0  0  0  0  0  0  0  0  0  0  0
   55.9988   13.1761   81.0609 C   0  0  0  0  0  0  0  0  0  0  0  0
   52.3565   13.2153   81.5050 C   0  0  0  0  0  0  0  0  0  0  0  0
   55.8877   14.3929   81.5720 N   0  0  0  0  0  0  0  0  0  0  0  0
   50.7144   11.3088   81.2180 C   0  0  0  0  0  0  0  0  0  0  0  0
   52.1534   11.7555   81.0934 C   0  0  0  0  0  0  0  0  0  0  0  0
   53.8492   13.4620   81.4161 C   0  0  0  0  0  0  0  0  0  0  0  0
   50.3026   10.4589   80.3784 O   0  0  0  0  0  0  0  0  0  0  0  0
   53.7667   16.9020   82.5685 C   0  0  0  0  0  0  0  0  0  0  0  0
   54.7853   12.5696   80.9452 C   0  0  0  0  0  0  0  0  0  0  0  0
   49.9537   11.7103   82.1292 O   0  0  0  0  0  0  0  0  0  0  0  0
   54.3993   18.1568   82.0741 C   0  0  0  0  0  0  0  0  0  0  0  0
  1  2  1  0
  1  6  4  0
  1  9  4  0
  2 11  2  3
  3 11  1  0
  4  6  4  0
  4 12  4  0
  5  8  1  0
  5  9  1  0
  7  8  1  0
  7 10  2  0
  7 13  1  0
  9 12  4  0
 11 14  1  0
M  END
$$$$
