
     RDKit          3D

 22 25  0  0  0  0  0  0  0  0999 V2000
    3.3355    0.2374   -0.6916 N   0  0  0  0  0  0  0  0  0  0  0  0
   -1.8388   -2.5603    0.2925 C   0  0  0  0  0  0  0  0  0  0  0  0
   -1.2770    2.7227    1.1559 C   0  0  0  0  0  0  0  0  0  0  0  0
    0.7227    3.9829    0.5952 C   0  0  0  0  0  0  0  0  0  0  0  0
    4.3762   -1.8389   -0.1703 C   0  0  0  0  0  0  0  0  0  0  0  0
    2.0857   -0.2970   -0.6249 C   0  0  0  0  0  0  0  0  0  0  0  0
    3.1261   -2.4436   -0.0759 C   0  0  0  0  0  0  0  0  0  0  0  0
   -3.0493   -1.6343    0.2843 N   0  0  0  0  0  0  0  0  0  0  0  0
   -0.5193    3.8940    1.2368 C   0  0  0  0  0  0  0  0  0  0  0  0
   -0.5342   -1.7941   -0.0311 C   0  0  2  0  0  0  0  0  0  0  0  0
    0.9810    0.5692   -1.0079 N   0  0  0  0  0  0  0  0  0  0  0  0
   -2.8683   -0.1988    0.7583 C   0  0  0  0  0  0  0  0  0  0  0  0
    4.4616   -0.4832   -0.4643 C   0  0  0  0  0  0  0  0  0  0  0  0
    0.4874    1.7129   -0.2346 C   0  0  0  0  0  0  0  0  0  0  0  0
   -3.7232   -1.6741   -1.0239 C   0  0  0  0  0  0  0  0  0  0  0  0
    2.4570    3.0081   -0.7927 O   0  0  0  0  0  0  0  0  0  0  0  0
    0.7355   -2.4224   -0.0056 O   0  0  0  0  0  0  0  0  0  0  0  0
    1.9501   -1.7098   -0.2671 C   0  0  0  0  0  0  0  0  0  0  0  0
   -0.7908    1.6414    0.4201 C   0  0  0  0  0  0  0  0  0  0  0  0
   -1.4773    0.3125    0.3569 C   0  0  1  0  0  0  0  0  0  0  0  0
    1.2295    2.9000   -0.1422 C   0  0  0  0  0  0  0  0  0  0  0  0
   -0.5331   -0.6872    0.9834 C   0  0  0  0  0  0  0  0  0  0  0  0
  1  6  2  0
  1 13  1  0
  2  8  1  0
 10  2  1  1
  3  9  1  0
  3 19  2  0
  4  9  2  0
  4 21  1  0
  5  7  1  0
  5 13  2  0
  6 11  1  0
  6 18  1  0
  7 18  2  0
  8 12  1  0
  8 15  1  0
 10 17  1  0
 10 22  1  0
 11 14  1  0
 20 12  1  1
 14 19  1  0
 14 21  2  0
 16 21  1  0
 17 18  1  0
 19 20  1  0
 20 22  1  0
M  END
