
     RDKit          3D

 16 16  0  0  0  0  0  0  0  0999 V2000
   -2.3642   -0.4842   -0.1194 C   0  0  1  0  0  0  0  0  0  0  0  0
    3.7339    1.3969    0.5060 C   0  0  0  0  0  0  0  0  0  0  0  0
   -3.1943    1.7836   -0.4738 C   0  0  0  0  0  0  0  0  0  0  0  0
    1.1667    0.1382    0.7120 N   0  0  0  0  0  0  0  0  0  0  0  0
   -0.9933    1.3567    0.4937 C   0  0  0  0  0  0  0  0  0  0  0  0
   -3.4362   -1.3118    1.9645 C   0  0  0  0  0  0  0  0  0  0  0  0
   -2.3899    0.9000    0.3853 N   0  0  0  0  0  0  0  0  0  0  0  0
   -0.9336   -0.9941    0.0247 C   0  0  0  0  0  0  0  0  0  0  0  0
   -3.3484   -1.3522    0.6339 C   0  0  0  0  0  0  0  0  0  0  0  0
    2.3086   -0.6305    0.2843 C   0  0  0  0  0  0  0  0  0  0  0  0
    3.5294   -0.0645    0.1955 C   0  0  0  0  0  0  0  0  0  0  0  0
    4.7061   -0.8926   -0.2513 C   0  0  0  0  0  0  0  0  0  0  0  0
   -0.0731    0.2599   -0.0820 C   0  0  2  0  0  0  0  0  0  0  0  0
    0.2678    0.5762   -1.5557 C   0  0  0  0  0  0  0  0  0  0  0  0
   -4.1703   -2.2348   -0.0645 O   0  0  0  0  0  0  0  0  0  0  0  0
    2.1598   -1.9801   -0.0383 O   0  0  0  0  0  0  0  0  0  0  0  0
  1  7  1  0
  1  8  1  0
  1  9  1  1
  2 11  1  0
  3  7  1  0
  4 10  1  0
  4 13  1  0
  5  7  1  0
  5 13  1  0
  6  9  2  0
  8 13  1  0
  9 15  1  0
 10 11  2  3
 10 16  1  0
 11 12  1  0
 13 14  1  6
M  END
