
     RDKit          3D

 22 26  0  0  0  0  0  0  0  0999 V2000
   -0.4059   -1.0083   -0.4116 C   0  0  1  0  0  0  0  0  0  0  0  0
   -3.3919    2.7991    0.3021 C   0  0  0  0  0  0  0  0  0  0  0  0
   -0.2942    0.7585   -2.3911 C   0  0  0  0  0  0  0  0  0  0  0  0
    4.6891    0.6693    2.2103 C   0  0  0  0  0  0  0  0  0  0  0  0
   -2.5391    1.5620    0.4154 C   0  0  0  0  0  0  0  0  0  0  0  0
    5.0916    0.7777    0.7863 C   0  0  0  0  0  0  0  0  0  0  0  0
   -2.5373   -1.6636   -1.7412 C   0  0  0  0  0  0  0  0  0  0  0  0
    3.4053    0.3939    2.3517 C   0  0  0  0  0  0  0  0  0  0  0  0
   -3.0684   -0.6967   -0.6575 C   0  0  2  0  0  0  0  0  0  0  0  0
    3.8214    0.4368    0.0012 C   0  0  0  0  0  0  0  0  0  0  0  0
    1.9700   -1.0864    0.9561 C   0  0  0  0  0  0  0  0  0  0  0  0
    1.1483   -1.3245   -0.3451 C   0  0  0  0  0  0  0  0  0  0  0  0
   -1.0487   -2.0139   -1.4453 C   0  0  0  0  0  0  0  0  0  0  0  0
   -0.7392   -2.2787    1.7113 O   0  0  0  0  0  0  0  0  0  0  0  0
   -1.2010   -1.1646    0.9799 C   0  0  2  0  0  0  0  0  0  0  0  0
   -1.9666    1.2806    1.6105 C   0  0  0  0  0  0  0  0  0  0  0  0
    2.6956    0.2728    1.0455 C   0  0  1  0  0  0  0  0  0  0  0  0
   -2.3308    0.6798   -0.8066 C   0  0  2  0  0  0  0  0  0  0  0  0
   -0.8129    0.3957   -0.9892 C   0  0  0  0  0  0  0  0  0  0  0  0
   -2.7320   -1.3517    0.7008 C   0  0  0  0  0  0  0  0  0  0  0  0
   -1.0399    0.1041    1.8904 C   0  0  0  0  0  0  0  0  0  0  0  0
    0.1467    1.5687   -1.1848 C   0  0  0  0  0  0  0  0  0  0  0  0
  1 12  1  1
  1 13  1  0
  1 15  1  0
  1 19  1  0
  2  5  1  0
  3 19  1  0
  3 22  1  0
  4  6  1  0
  4  8  2  0
  5 16  2  0
 18  5  1  1
  6 10  1  0
  9  7  1  6
  7 13  1  0
  8 17  1  0
  9 18  1  0
  9 20  1  0
 10 17  1  0
 11 12  1  0
 17 11  1  1
 15 14  1  1
 15 20  1  0
 15 21  1  0
 16 21  1  0
 18 19  1  0
 19 22  1  0
M  END
