
     RDKit          3D

 21 23  0  0  0  0  0  0  0  0999 V2000
    4.3718   -0.7558    0.0100 C   0  0  0  0  0  0  0  0  0  0  0  0
   -5.3797   -1.3391   -0.7215 C   0  0  0  0  0  0  0  0  0  0  0  0
    3.5938    0.3706    0.4084 O   0  0  0  0  0  0  0  0  0  0  0  0
    0.1831    1.7814    0.5569 C   0  0  0  0  0  0  0  0  0  0  0  0
   -2.6916    2.1372   -0.0138 N   0  0  0  0  0  0  0  0  0  0  0  0
    1.5666    1.6347    0.6889 C   0  0  0  0  0  0  0  0  0  0  0  0
    6.5908   -1.6020   -0.0509 F   0  0  0  0  0  0  0  0  0  0  0  0
   -4.0012    1.9546   -0.1666 N   0  0  0  0  0  0  0  0  0  0  0  0
    5.9909   -0.3128    1.6972 F   0  0  0  0  0  0  0  0  0  0  0  0
   -2.0605    0.9374   -0.1414 C   0  0  0  0  0  0  0  0  0  0  0  0
    6.2878    0.6123   -0.3388 F   0  0  0  0  0  0  0  0  0  0  0  0
   -0.5941    0.7569   -0.0105 C   0  0  0  0  0  0  0  0  0  0  0  0
   -5.3971    0.0187   -0.5525 N   0  0  0  0  0  0  0  0  0  0  0  0
    1.4332   -0.5564   -0.3254 C   0  0  0  0  0  0  0  0  0  0  0  0
    2.2033    0.4690    0.2527 C   0  0  0  0  0  0  0  0  0  0  0  0
   -4.2110    0.6505   -0.3851 C   0  0  0  0  0  0  0  0  0  0  0  0
    5.8385   -0.5083    0.3363 C   0  0  0  0  0  0  0  0  0  0  0  0
   -3.0332   -0.0179   -0.3770 C   0  0  0  0  0  0  0  0  0  0  0  0
    0.0487   -0.4118   -0.4574 C   0  0  0  0  0  0  0  0  0  0  0  0
   -4.1481   -2.0420   -0.7041 C   0  0  0  0  0  0  0  0  0  0  0  0
   -2.9739   -1.3637   -0.5220 N   0  0  0  0  0  0  0  0  0  0  0  0
  1  3  1  0
  1 17  1  0
  2 13  1  0
  2 20  2  0
  3 15  1  0
  4  6  2  0
  4 12  1  0
  5  8  1  0
  5 10  2  0
  6 15  1  0
  7 17  1  0
  8 16  1  0
  9 17  1  0
 10 12  1  0
 10 18  1  0
 11 17  1  0
 12 19  2  0
 13 16  2  0
 14 15  2  0
 14 19  1  0
 16 18  1  0
 18 21  2  0
 20 21  1  0
M  END
