
     RDKit          3D

 16 17  0  0  0  0  0  0  0  0999 V2000
   -2.9524   -0.4142   -0.1313 C   0  0  0  0  0  0  0  0  0  0  0  0
    1.3360   -0.6982   -0.4227 C   0  0  0  0  0  0  0  0  0  0  0  0
   -4.3529   -0.3686   -0.0645 O   0  0  0  0  0  0  0  0  0  0  0  0
    4.2419    0.2461   -0.9429 C   0  0  0  0  0  0  0  0  0  0  0  0
   -5.0932    0.6508    0.5990 C   0  0  0  0  0  0  0  0  0  0  0  0
   -0.9621   -1.5666   -0.9123 C   0  0  0  0  0  0  0  0  0  0  0  0
   -0.1399   -0.5966   -0.3122 C   0  0  0  0  0  0  0  0  0  0  0  0
    5.5866    0.8693    0.6008 N   0  0  0  0  0  0  0  0  0  0  0  0
    3.5782    0.2620    0.2669 C   0  0  0  0  0  0  0  0  0  0  0  0
    4.4345    0.6652    1.2205 N   0  0  0  0  0  0  0  0  0  0  0  0
   -0.7433    0.4756    0.3694 C   0  0  0  0  0  0  0  0  0  0  0  0
    2.1933   -0.0200    0.5109 N   0  0  0  0  0  0  0  0  0  0  0  0
    1.8397   -1.4234   -1.3232 O   0  0  0  0  0  0  0  0  0  0  0  0
    5.5080    0.6309   -0.7004 N   0  0  0  0  0  0  0  0  0  0  0  0
   -2.3536   -1.4753   -0.8176 C   0  0  0  0  0  0  0  0  0  0  0  0
   -2.1356    0.5657    0.4621 C   0  0  0  0  0  0  0  0  0  0  0  0
  1  3  1  0
  1 15  1  0
  1 16  2  0
  2  7  1  0
  2 12  1  0
  2 13  2  0
  3  5  1  0
  4  9  1  0
  4 14  2  0
  6  7  1  0
  6 15  2  0
  7 11  2  0
  8 10  1  0
  8 14  1  0
  9 10  2  0
  9 12  1  0
 11 16  1  0
M  END
