
     RDKit          3D

 25 28  0  0  0  0  0  0  0  0999 V2000
    2.2495   -0.2372    0.1355 N   0  0  0  0  0  0  0  0  0  0  0  0
    4.4967   -1.4144    0.3284 C   0  0  0  0  0  0  0  0  0  0  0  0
    5.0254    1.0091    0.4916 N   0  0  0  0  0  0  0  0  0  0  0  0
   -4.1213    0.4566   -1.4525 C   0  0  0  0  0  0  0  0  0  0  0  0
   -1.0989    1.2716    0.8302 C   0  0  0  0  0  0  0  0  0  0  0  0
    7.2533    0.7621    0.1142 N   0  0  0  0  0  0  0  0  0  0  0  0
    6.2356    1.6200    0.3714 C   0  0  0  0  0  0  0  0  0  0  0  0
   -1.4010   -1.0893    0.3728 C   0  0  0  0  0  0  0  0  0  0  0  0
    6.4495   -2.7473   -0.0522 C   0  0  0  0  0  0  0  0  0  0  0  0
    0.8317   -0.1259    0.3453 C   0  0  0  0  0  0  0  0  0  0  0  0
   -6.3237    0.5357   -0.4509 C   0  0  0  0  0  0  0  0  0  0  0  0
    7.2417   -1.6356   -0.0988 N   0  0  0  0  0  0  0  0  0  0  0  0
    3.0426   -1.3535    0.5805 C   0  0  0  0  0  0  0  0  0  0  0  0
    5.1007   -2.6313    0.1661 N   0  0  0  0  0  0  0  0  0  0  0  0
    5.3213   -0.2874    0.2827 C   0  0  0  0  0  0  0  0  0  0  0  0
   -5.5145   -0.1535   -1.5330 C   0  0  0  0  0  0  0  0  0  0  0  0
   -1.9499    0.1609    0.6993 C   0  0  0  0  0  0  0  0  0  0  0  0
    2.4996   -2.3138    1.1905 O   0  0  0  0  0  0  0  0  0  0  0  0
    6.6510   -0.4294    0.0685 C   0  0  0  0  0  0  0  0  0  0  0  0
   -5.3871    1.5696    0.1539 C   0  0  0  0  0  0  0  0  0  0  0  0
   -3.4387    0.3145    0.8864 C   0  0  0  0  0  0  0  0  0  0  0  0
   -4.0100    1.1755   -0.1733 N   0  0  0  0  0  0  0  0  0  0  0  0
   -1.6041    2.4944    1.1334 F   0  0  0  0  0  0  0  0  0  0  0  0
    0.2795    1.1274    0.6456 C   0  0  0  0  0  0  0  0  0  0  0  0
   -0.0227   -1.2309    0.1896 C   0  0  0  0  0  0  0  0  0  0  0  0
  1 10  1  0
  1 13  1  0
  2 13  1  0
  2 14  1  0
  2 15  2  0
  3  7  2  0
  3 15  1  0
  4 16  1  0
  4 22  1  0
  5 17  2  0
  5 23  1  0
  5 24  1  0
  6  7  1  0
  6 19  1  0
  8 17  1  0
  8 25  2  0
  9 12  1  0
  9 14  2  0
 10 24  2  0
 10 25  1  0
 11 16  1  0
 11 20  1  0
 12 19  2  0
 13 18  2  0
 15 19  1  0
 17 21  1  0
 20 22  1  0
 21 22  1  0
M  END
