
     RDKit          3D

 16 17  0  0  0  0  0  0  0  0999 V2000
    2.3687   -0.4684    0.3581 C   0  0  0  0  0  0  0  0  0  0  0  0
   -0.1521   -0.2024    0.1944 C   0  0  0  0  0  0  0  0  0  0  0  0
   -5.1791    0.8594   -0.5797 C   0  0  0  0  0  0  0  0  0  0  0  0
    3.9410   -0.5633   -1.4971 C   0  0  0  0  0  0  0  0  0  0  0  0
   -3.7904   -0.8705    0.3017 N   0  0  0  0  0  0  0  0  0  0  0  0
    2.6345   -0.6697   -1.0096 C   0  0  0  0  0  0  0  0  0  0  0  0
    3.4365   -0.1973    1.2285 C   0  0  0  0  0  0  0  0  0  0  0  0
    4.9928   -0.2695   -0.6256 C   0  0  0  0  0  0  0  0  0  0  0  0
   -2.8249    1.2548   -0.2036 C   0  0  0  0  0  0  0  0  0  0  0  0
   -4.0756    1.7119   -0.6246 C   0  0  0  0  0  0  0  0  0  0  0  0
   -0.0738    0.4688   -0.8704 O   0  0  0  0  0  0  0  0  0  0  0  0
   -5.0160   -0.4421   -0.1028 C   0  0  0  0  0  0  0  0  0  0  0  0
    4.7413   -0.0907    0.7369 C   0  0  0  0  0  0  0  0  0  0  0  0
    1.0395   -0.5961    0.8918 N   0  0  0  0  0  0  0  0  0  0  0  0
   -2.6898   -0.0696    0.2490 C   0  0  0  0  0  0  0  0  0  0  0  0
   -1.4333   -0.5814    0.7202 N   0  0  0  0  0  0  0  0  0  0  0  0
  1  6  2  0
  1  7  1  0
  1 14  1  0
  2 11  2  0
  2 14  1  0
  2 16  1  0
  3 10  2  0
  3 12  1  0
  4  6  1  0
  4  8  2  0
  5 12  2  0
  5 15  1  0
  7 13  2  0
  8 13  1  0
  9 10  1  0
  9 15  2  0
 15 16  1  0
M  END
