
     RDKit          3D

 17 19  0  0  0  0  0  0  0  0999 V2000
   -1.0457   -1.4107   -0.1972 N   0  0  0  0  0  0  0  0  0  0  0  0
    2.6666   -0.9940   -0.0779 C   0  0  0  0  0  0  0  0  0  0  0  0
    1.4033   -1.5852   -0.1767 C   0  0  0  0  0  0  0  0  0  0  0  0
   -2.1509   -0.7262   -0.1246 C   0  0  0  0  0  0  0  0  0  0  0  0
    2.7945    0.3974    0.0983 C   0  0  0  0  0  0  0  0  0  0  0  0
   -3.1971    1.4315    0.1441 N   0  0  0  0  0  0  0  0  0  0  0  0
    4.1281    1.0377    0.2102 C   0  0  0  0  0  0  0  0  0  0  0  0
    0.2515   -0.7996   -0.0955 C   0  0  0  0  0  0  0  0  0  0  0  0
    5.3015    0.4208   -0.3268 N   0  0  0  0  0  0  0  0  0  0  0  0
   -0.8279    1.3819    0.1769 N   0  0  0  0  0  0  0  0  0  0  0  0
   -3.4759   -1.4275   -0.2388 C   0  0  0  0  0  0  0  0  0  0  0  0
    4.2362    2.1580    0.7783 O   0  0  0  0  0  0  0  0  0  0  0  0
   -4.4972    0.8330    0.0432 C   0  0  0  0  0  0  0  0  0  0  0  0
   -2.1017    0.7386    0.0704 C   0  0  0  0  0  0  0  0  0  0  0  0
    0.3642    0.5898    0.0914 C   0  0  0  0  0  0  0  0  0  0  0  0
    1.6295    1.1823    0.1913 C   0  0  0  0  0  0  0  0  0  0  0  0
   -4.6482   -0.4852   -0.1338 C   0  0  0  0  0  0  0  0  0  0  0  0
  1  4  2  0
  1  8  1  0
  2  3  2  0
  2  5  1  0
  3  8  1  0
  4 11  1  0
  4 14  1  0
  5  7  1  0
  5 16  2  0
  6 13  1  0
  6 14  2  0
  7  9  1  0
  7 12  2  0
  8 15  2  0
 10 14  1  0
 10 15  1  0
 11 17  1  0
 13 17  2  0
 15 16  1  0
M  END
