
     RDKit          3D

 15 16  0  0  0  0  0  0  0  0999 V2000
   -5.0891    0.6285    0.2006 O   0  0  0  0  0  0  0  0  0  0  0  0
   -1.8589   -1.0972    1.0985 C   0  0  0  0  0  0  0  0  0  0  0  0
   -4.2067   -0.2709    0.7936 C   0  0  0  0  0  0  0  0  0  0  0  0
    0.0090   -0.0424   -0.0534 C   0  0  0  0  0  0  0  0  0  0  0  0
   -0.8911    0.8600   -0.6465 C   0  0  0  0  0  0  0  0  0  0  0  0
    4.2161    0.1900   -0.9022 C   0  0  0  0  0  0  0  0  0  0  0  0
    2.1063    1.2868   -0.4418 C   0  0  0  0  0  0  0  0  0  0  0  0
    3.4752    1.3594   -0.7175 C   0  0  0  0  0  0  0  0  0  0  0  0
    3.5897   -1.0549   -0.8110 C   0  0  0  0  0  0  0  0  0  0  0  0
    2.2213   -1.1335   -0.5345 C   0  0  0  0  0  0  0  0  0  0  0  0
   -2.2594    0.7841   -0.3710 C   0  0  0  0  0  0  0  0  0  0  0  0
   -0.4908   -1.0221    0.8221 C   0  0  0  0  0  0  0  0  0  0  0  0
   -2.7576   -0.1947    0.5044 C   0  0  0  0  0  0  0  0  0  0  0  0
    1.4630    0.0379   -0.3468 C   0  0  0  0  0  0  0  0  0  0  0  0
   -4.6561   -1.1495    1.5785 O   0  0  0  0  0  0  0  0  0  0  0  0
  1  3  1  0
  2 12  2  0
  2 13  1  0
  3 13  1  0
  3 15  2  0
  4  5  2  0
  4 12  1  0
  4 14  1  0
  5 11  1  0
  6  8  2  0
  6  9  1  0
  7  8  1  0
  7 14  2  0
  9 10  2  0
 10 14  1  0
 11 13  2  0
M  END
