
     RDKit          3D

 15 16  0  0  0  0  0  0  0  0999 V2000
    4.6151   -1.1087   -1.1206 O   0  0  0  0  0  0  0  0  0  0  0  0
    4.0600   -0.4001   -0.2376 C   0  0  0  0  0  0  0  0  0  0  0  0
    1.9705    0.5215    0.7853 C   0  0  0  0  0  0  0  0  0  0  0  0
   -3.7813    0.2494    1.1718 C   0  0  0  0  0  0  0  0  0  0  0  0
   -1.7060    0.1206   -0.0736 C   0  0  0  0  0  0  0  0  0  0  0  0
    0.3907   -0.8044   -1.1014 C   0  0  0  0  0  0  0  0  0  0  0  0
   -4.4704    0.3718    0.0071 N   0  0  0  0  0  0  0  0  0  0  0  0
    4.8485    0.2592    0.7020 O   0  0  0  0  0  0  0  0  0  0  0  0
   -3.8392    0.3742   -1.1962 C   0  0  0  0  0  0  0  0  0  0  0  0
   -2.3903    0.1225    1.1544 C   0  0  0  0  0  0  0  0  0  0  0  0
    0.5790    0.6474    0.8262 C   0  0  0  0  0  0  0  0  0  0  0  0
    1.7822   -0.9313   -1.1416 C   0  0  0  0  0  0  0  0  0  0  0  0
   -2.4494    0.2485   -1.2599 C   0  0  0  0  0  0  0  0  0  0  0  0
   -0.2271   -0.0138   -0.1168 C   0  0  0  0  0  0  0  0  0  0  0  0
    2.5867   -0.2691   -0.1985 C   0  0  0  0  0  0  0  0  0  0  0  0
  1  2  2  0
  2  8  1  0
  2 15  1  0
  3 11  2  0
  3 15  1  0
  4  7  1  0
  4 10  2  0
  5 10  1  0
  5 13  2  0
  5 14  1  0
  6 12  1  0
  6 14  2  0
  7  9  2  0
  9 13  1  0
 11 14  1  0
 12 15  2  0
M  END
