
     RDKit          3D

 18 19  0  0  0  0  0  0  0  0999 V2000
   -0.9351   -0.0684    0.1192 C   0  0  0  0  0  0  0  0  0  0  0  0
   -1.6374   -0.8500   -0.8145 C   0  0  0  0  0  0  0  0  0  0  0  0
   -5.8929    0.6909    0.8225 O   0  0  0  0  0  0  0  0  0  0  0  0
    4.8603   -0.1519    0.2479 C   0  0  0  0  0  0  0  0  0  0  0  0
   -3.7605   -0.0375    0.0533 C   0  0  0  0  0  0  0  0  0  0  0  0
    1.2744    1.1023    0.3531 C   0  0  0  0  0  0  0  0  0  0  0  0
    2.6719    1.0871    0.3842 C   0  0  0  0  0  0  0  0  0  0  0  0
    5.6434    1.0118   -0.0316 N   0  0  0  0  0  0  0  0  0  0  0  0
    1.2548   -1.2900   -0.0087 C   0  0  0  0  0  0  0  0  0  0  0  0
    3.3775   -0.1168    0.2115 C   0  0  0  0  0  0  0  0  0  0  0  0
   -5.2396   -0.0243    0.0153 C   0  0  0  0  0  0  0  0  0  0  0  0
    5.4518   -1.2323    0.5170 O   0  0  0  0  0  0  0  0  0  0  0  0
    2.6518   -1.3059    0.0246 C   0  0  0  0  0  0  0  0  0  0  0  0
    0.5499   -0.0852    0.1533 C   0  0  0  0  0  0  0  0  0  0  0  0
   -3.0348   -0.8341   -0.8474 C   0  0  0  0  0  0  0  0  0  0  0  0
   -5.9249   -0.8029   -0.9138 O   0  0  0  0  0  0  0  0  0  0  0  0
   -3.0597    0.7439    0.9879 C   0  0  0  0  0  0  0  0  0  0  0  0
   -1.6624    0.7289    1.0201 C   0  0  0  0  0  0  0  0  0  0  0  0
  1  2  1  0
  1 14  1  0
  1 18  2  0
  2 15  2  0
  3 11  2  0
  4  8  1  0
  4 10  1  0
  4 12  2  0
  5 11  1  0
  5 15  1  0
  5 17  2  0
  6  7  2  0
  6 14  1  0
  7 10  1  0
  9 13  1  0
  9 14  2  0
 10 13  2  0
 11 16  1  0
 17 18  1  0
M  END
