
     RDKit          3D

 25 28  0  0  0  0  0  0  0  0999 V2000
   -3.0836   -0.2719   -0.5123 C   0  0  0  0  0  0  0  0  0  0  0  0
   -3.8753   -0.1896    0.6443 C   0  0  0  0  0  0  0  0  0  0  0  0
    2.3684    0.9493   -0.7887 N   0  0  0  0  0  0  0  0  0  0  0  0
   -1.7005    0.1975   -3.0207 O   0  0  0  0  0  0  0  0  0  0  0  0
   -2.5282    1.6488    1.4472 C   0  0  0  0  0  0  0  0  0  0  0  0
    0.7270   -0.3756    0.0423 N   0  0  0  0  0  0  0  0  0  0  0  0
    2.8776    0.2908    0.2714 C   0  0  0  0  0  0  0  0  0  0  0  0
   -3.3693   -1.2751   -1.4477 O   0  0  0  0  0  0  0  0  0  0  0  0
    0.7371    1.7106   -3.0772 C   0  0  0  0  0  0  0  0  0  0  0  0
    5.0657    1.4247   -0.0620 C   0  0  0  0  0  0  0  0  0  0  0  0
    2.9107   -1.6671    2.7221 C   0  0  0  0  0  0  0  0  0  0  0  0
    4.1941   -1.1209    2.6918 C   0  0  0  0  0  0  0  0  0  0  0  0
    4.7606   -0.1923    1.8136 C   0  0  0  0  0  0  0  0  0  0  0  0
   -1.1857    0.5820   -1.9352 C   0  0  0  0  0  0  0  0  0  0  0  0
   -4.9515   -1.0695    0.7996 O   0  0  0  0  0  0  0  0  0  0  0  0
    1.8378   -1.4190    1.8768 C   0  0  0  0  0  0  0  0  0  0  0  0
    1.8236   -0.5534    0.7994 C   0  0  0  0  0  0  0  0  0  0  0  0
   -2.0194    0.6317   -0.7086 C   0  0  0  0  0  0  0  0  0  0  0  0
   -4.2440   -2.3603   -1.1318 C   0  0  0  0  0  0  0  0  0  0  0  0
   -1.7543    1.5943    0.2837 C   0  0  0  0  0  0  0  0  0  0  0  0
    1.0881    0.5316   -0.8908 C   0  0  0  0  0  0  0  0  0  0  0  0
    0.1929    0.9995   -1.9184 N   0  0  0  0  0  0  0  0  0  0  0  0
   -3.5875    0.7574    1.6287 C   0  0  0  0  0  0  0  0  0  0  0  0
    4.1956    0.4557    0.7047 C   0  0  0  0  0  0  0  0  0  0  0  0
   -5.4248   -1.8592   -0.2934 C   0  0  0  0  0  0  0  0  0  0  0  0
  1  2  2  0
  1  8  1  0
  1 18  1  0
  2 15  1  0
  2 23  1  0
  3  7  2  0
  3 21  1  0
  4 14  2  0
  5 20  1  0
  5 23  2  0
  6 17  1  0
  6 21  2  0
  7 17  1  0
  7 24  1  0
  8 19  1  0
  9 22  1  0
 10 24  1  0
 11 12  2  0
 11 16  1  0
 12 13  1  0
 13 24  2  0
 14 18  1  0
 14 22  1  0
 15 25  1  0
 16 17  2  0
 18 20  2  0
 19 25  1  0
 21 22  1  0
M  END
