
     RDKit          3D

 26 29  0  0  0  0  0  0  0  0999 V2000
    4.6888    1.9537   -0.6601 C   0  0  0  0  0  0  0  0  0  0  0  0
   -3.1905    0.8735   -0.3981 C   0  0  0  0  0  0  0  0  0  0  0  0
    3.3047   -3.0738    1.9981 O   0  0  0  0  0  0  0  0  0  0  0  0
   -5.8528    0.7521    1.2221 C   0  0  0  0  0  0  0  0  0  0  0  0
    3.8216   -2.1131    1.3685 C   0  0  0  0  0  0  0  0  0  0  0  0
    1.5740   -1.1630    0.5297 C   0  0  0  0  0  0  0  0  0  0  0  0
    3.5050    2.5612   -1.1518 C   0  0  0  0  0  0  0  0  0  0  0  0
   -2.7029   -0.5922   -0.3096 C   0  0  0  0  0  0  0  0  0  0  0  0
   -4.6389    0.9711   -0.9007 C   0  0  0  0  0  0  0  0  0  0  0  0
    5.2069   -2.0071    1.3140 O   0  0  0  0  0  0  0  0  0  0  0  0
    7.1136    2.3468   -0.0038 N   0  0  0  0  0  0  0  0  0  0  0  0
    4.6070    0.6961   -0.0166 C   0  0  0  0  0  0  0  0  0  0  0  0
    3.3507    0.0977    0.1274 C   0  0  0  0  0  0  0  0  0  0  0  0
   -5.1591   -1.2465   -0.0232 C   0  0  0  0  0  0  0  0  0  0  0  0
    5.9947    2.6316   -0.8479 C   0  0  0  0  0  0  0  0  0  0  0  0
    1.1245   -0.0405   -0.0734 N   0  0  0  0  0  0  0  0  0  0  0  0
   -5.5787    0.1648   -0.1005 N   0  0  0  0  0  0  0  0  0  0  0  0
    2.9628   -1.1098    0.7010 C   0  0  0  0  0  0  0  0  0  0  0  0
    6.1254    3.4904   -1.7615 O   0  0  0  0  0  0  0  0  0  0  0  0
   -0.7168   -2.1356    0.2958 C   0  0  0  0  0  0  0  0  0  0  0  0
   -0.2637    0.2374   -0.4494 C   0  0  0  0  0  0  0  0  0  0  0  0
   -3.7261   -1.4183    0.5056 C   0  0  0  0  0  0  0  0  0  0  0  0
    2.2556    1.9429   -0.9886 C   0  0  0  0  0  0  0  0  0  0  0  0
    0.6454   -2.2433    0.9943 C   0  0  0  0  0  0  0  0  0  0  0  0
   -1.2623   -0.6833    0.3036 C   0  0  1  0  0  0  0  0  0  0  0  0
    2.2109    0.7107   -0.3363 C   0  0  0  0  0  0  0  0  0  0  0  0
  1  7  1  0
  1 12  2  0
  1 15  1  0
  2  8  1  0
  2  9  1  0
  3  5  2  0
  4 17  1  0
  5 10  1  0
  5 18  1  0
  6 16  1  0
  6 18  2  0
  6 24  1  0
  7 23  2  0
  8 22  1  0
 25  8  1  6
  9 17  1  0
 11 15  1  0
 12 13  1  0
 13 18  1  0
 13 26  2  0
 14 17  1  0
 14 22  1  0
 15 19  2  0
 16 21  1  0
 16 26  1  0
 20 24  1  0
 20 25  1  0
 21 25  1  0
 23 26  1  0
M  END
