
     RDKit          3D

 22 24  0  0  0  0  0  0  0  0999 V2000
   -2.9049    0.3664   -1.0703 C   0  0  0  0  0  0  0  0  0  0  0  0
   -4.0490   -1.6538   -0.3499 C   0  0  0  0  0  0  0  0  0  0  0  0
   -0.6102    1.3895   -1.0141 C   0  0  0  0  0  0  0  0  0  0  0  0
    1.0502   -0.7248   -0.3620 C   0  0  2  0  0  0  0  0  0  0  0  0
   -1.8250    1.0409   -1.8765 C   0  0  0  0  0  0  0  0  0  0  0  0
    3.9785    1.4952    0.6511 C   0  0  0  0  0  0  0  0  0  0  0  0
    2.8070   -0.9192    1.4425 C   0  0  0  0  0  0  0  0  0  0  0  0
   -4.8729   -0.8935    0.4864 C   0  0  0  0  0  0  0  0  0  0  0  0
    1.2849   -1.5407   -1.6304 C   0  0  0  0  0  0  0  0  0  0  0  0
   -3.7329    1.1232   -0.2251 C   0  0  0  0  0  0  0  0  0  0  0  0
    3.9371   -0.4383    2.1108 C   0  0  0  0  0  0  0  0  0  0  0  0
    5.6872    1.2655    2.4063 C   0  0  0  0  0  0  0  0  0  0  0  0
    6.6235    1.6625    2.9586 N   0  0  0  0  0  0  0  0  0  0  0  0
   -3.0680   -1.0281   -1.1249 C   0  0  0  0  0  0  0  0  0  0  0  0
   -4.7140    0.4948    0.5479 C   0  0  0  0  0  0  0  0  0  0  0  0
    2.2406   -0.1852    0.3862 C   0  0  0  0  0  0  0  0  0  0  0  0
    4.5227    0.7717    1.7192 C   0  0  0  0  0  0  0  0  0  0  0  0
   -0.0530   -1.0740    0.4054 C   0  0  0  0  0  0  0  0  0  0  0  0
    2.8484    1.0153   -0.0178 C   0  0  0  0  0  0  0  0  0  0  0  0
   -6.1011   -1.6808    1.4603 Cl  0  0  0  0  0  0  0  0  0  0  0  0
   -0.6520   -1.8353    1.2081 O   0  0  0  0  0  0  0  0  0  0  0  0
   -0.0027    0.1838   -0.4743 N   0  0  0  0  0  0  0  0  0  0  0  0
  1  5  1  0
  1 10  2  0
  1 14  1  0
  2  8  1  0
  2 14  2  0
  3  5  1  0
  3 22  1  0
  4  9  1  6
  4 16  1  0
  4 18  1  0
  4 22  1  0
  6 17  1  0
  6 19  2  0
  7 11  1  0
  7 16  2  0
  8 15  2  0
  8 20  1  0
 10 15  1  0
 11 17  2  0
 12 13  3  0
 12 17  1  0
 16 19  1  0
 18 21  2  0
 18 22  1  0
M  END
