
     RDKit          3D

 21 23  0  0  0  0  0  0  0  0999 V2000
   -1.2676    2.6449   -0.9507 C   0  0  0  0  0  0  0  0  0  0  0  0
    3.3168   -1.9693   -0.3453 C   0  0  0  0  0  0  0  0  0  0  0  0
    2.4527    1.5182    0.6495 O   0  0  0  0  0  0  0  0  0  0  0  0
    4.7799   -3.6314    0.7276 C   0  0  0  0  0  0  0  0  0  0  0  0
   -2.0706   -0.9664    0.0896 C   0  0  0  0  0  0  0  0  0  0  0  0
    2.7360   -0.6977   -0.3745 C   0  0  0  0  0  0  0  0  0  0  0  0
    4.4684   -1.3961    1.7081 C   0  0  0  0  0  0  0  0  0  0  0  0
    3.8871   -0.1246    1.6787 C   0  0  0  0  0  0  0  0  0  0  0  0
    4.1813   -2.3226    0.6981 C   0  0  0  0  0  0  0  0  0  0  0  0
   -0.1911    3.5341   -0.9429 C   0  0  0  0  0  0  0  0  0  0  0  0
    0.1135    0.9776    0.1333 C   0  0  0  0  0  0  0  0  0  0  0  0
   -4.1458   -1.5252   -1.0334 O   0  0  0  0  0  0  0  0  0  0  0  0
   -2.2713    0.4139   -0.4024 N   0  0  0  0  0  0  0  0  0  0  0  0
   -3.5459    0.8202   -1.0317 C   0  0  0  0  0  0  0  0  0  0  0  0
   -4.6578   -0.2221   -0.8912 C   0  0  0  0  0  0  0  0  0  0  0  0
    1.2034    1.8668    0.1146 C   0  0  0  0  0  0  0  0  0  0  0  0
    5.2612   -4.6836    0.7513 N   0  0  0  0  0  0  0  0  0  0  0  0
    1.0353    3.1495   -0.4069 C   0  0  0  0  0  0  0  0  0  0  0  0
   -3.3477   -1.8121    0.0896 C   0  0  0  0  0  0  0  0  0  0  0  0
    3.0057    0.2288    0.6499 C   0  0  0  0  0  0  0  0  0  0  0  0
   -1.1442    1.3450   -0.4045 C   0  0  0  0  0  0  0  0  0  0  0  0
  1 10  1  0
  1 21  2  0
  2  6  2  0
  2  9  1  0
  3 16  1  0
  3 20  1  0
  4  9  1  0
  4 17  3  0
  5 13  1  0
  5 19  1  0
  6 20  1  0
  7  8  1  0
  7  9  2  0
  8 20  2  0
 10 18  2  0
 11 16  2  0
 11 21  1  0
 12 15  1  0
 12 19  1  0
 13 14  1  0
 13 21  1  0
 14 15  1  0
 16 18  1  0
M  END
