
     RDKit          3D

 21 23  0  0  0  0  0  0  0  0999 V2000
   -1.7211   -1.7673   -1.6916 C   0  0  0  0  0  0  0  0  0  0  0  0
   -3.5112   -1.8797   -3.4597 C   0  0  0  0  0  0  0  0  0  0  0  0
    2.4744   -0.1638    1.8678 C   0  0  0  0  0  0  0  0  0  0  0  0
   -3.5158    1.6067    0.0496 O   0  0  0  0  0  0  0  0  0  0  0  0
    4.4826   -1.0143   -1.1669 C   0  0  0  0  0  0  0  0  0  0  0  0
   -1.0817    2.2271    2.7458 N   0  0  0  0  0  0  0  0  0  0  0  0
   -3.4752   -0.0930   -1.6859 C   0  0  0  0  0  0  0  0  0  0  0  0
    1.2895    0.1101    1.0541 N   0  0  0  0  0  0  0  0  0  0  0  0
    3.5409   -0.9174    1.0627 C   0  0  0  0  0  0  0  0  0  0  0  0
   -4.1744    1.3573    2.3656 C   0  0  0  0  0  0  0  0  0  0  0  0
   -1.7896    1.6673    1.7413 C   0  0  0  0  0  0  0  0  0  0  0  0
    3.9864   -0.1244   -0.1051 N   0  0  0  0  0  0  0  0  0  0  0  0
    0.1253    0.7343    1.6122 C   0  0  0  0  0  0  0  0  0  0  0  0
   -2.8894    0.5123   -0.5708 C   0  0  0  0  0  0  0  0  0  0  0  0
   -1.1018    0.7387    1.0526 N   0  0  0  0  0  0  0  0  0  0  0  0
   -1.6747    0.0265   -0.0573 C   0  0  0  0  0  0  0  0  0  0  0  0
   -1.1217   -1.1499   -0.5890 C   0  0  0  0  0  0  0  0  0  0  0  0
   -3.2087    2.0256    1.3906 C   0  0  1  0  0  0  0  0  0  0  0  0
    0.1277    1.6328    2.6629 C   0  0  0  0  0  0  0  0  0  0  0  0
   -2.8976   -1.2414   -2.2488 C   0  0  0  0  0  0  0  0  0  0  0  0
    5.0467    0.8266    0.2726 C   0  0  0  0  0  0  0  0  0  0  0  0
  1 17  2  0
  1 20  1  0
  2 20  1  0
  3  8  1  0
  3  9  1  0
  4 14  1  0
  4 18  1  0
  5 12  1  0
  6 11  2  0
  6 19  1  0
  7 14  1  0
  7 20  2  0
  8 13  1  0
  9 12  1  0
 18 10  1  1
 11 15  1  0
 11 18  1  0
 12 21  1  0
 13 15  1  0
 13 19  2  0
 14 16  2  0
 15 16  1  0
 16 17  1  0
M  END
