
     RDKit          3D

 23 25  0  0  0  0  0  0  0  0999 V2000
   -3.4001   -0.4337    0.3447 C   0  0  0  0  0  0  0  0  0  0  0  0
   -5.2469    1.0969    0.7725 C   0  0  0  0  0  0  0  0  0  0  0  0
   -3.4668    3.2599    0.7083 C   0  0  0  0  0  0  0  0  0  0  0  0
    0.3656    0.2306   -0.1671 C   0  0  1  0  0  0  0  0  0  0  0  0
    3.0194   -0.6267   -0.9748 N   0  0  0  0  0  0  0  0  0  0  0  0
    5.9958    0.7774    1.0129 C   0  0  0  0  0  0  0  0  0  0  0  0
    0.6277   -0.3162   -1.5919 C   0  0  0  0  0  0  0  0  0  0  0  0
   -2.3298   -3.1505   -0.0701 C   0  0  0  0  0  0  0  0  0  0  0  0
    1.6333   -1.9452    0.6490 C   0  0  0  0  0  0  0  0  0  0  0  0
    4.6636    0.9622   -1.4734 O   0  0  0  0  0  0  0  0  0  0  0  0
   -1.6219    1.7274    0.2802 C   0  0  0  0  0  0  0  0  0  0  0  0
   -5.7160    2.3988    0.9687 C   0  0  0  0  0  0  0  0  0  0  0  0
    2.7990   -1.9458   -0.3666 C   0  0  0  0  0  0  0  0  0  0  0  0
   -4.8285    3.4772    0.9367 C   0  0  0  0  0  0  0  0  0  0  0  0
    2.0958   -0.1576   -2.0180 C   0  0  0  0  0  0  0  0  0  0  0  0
   -1.5382   -1.9672   -0.0833 O   0  0  0  0  0  0  0  0  0  0  0  0
   -2.9839    1.9561    0.5098 C   0  0  0  0  0  0  0  0  0  0  0  0
   -2.0299   -0.6681    0.1135 C   0  0  0  0  0  0  0  0  0  0  0  0
   -1.1291    0.4233    0.0796 C   0  0  0  0  0  0  0  0  0  0  0  0
    1.0526   -0.5561    0.9969 C   0  0  0  0  0  0  0  0  0  0  0  0
    4.1768    0.1618   -0.6280 C   0  0  0  0  0  0  0  0  0  0  0  0
    4.7733    0.0596    0.6740 N   0  0  0  0  0  0  0  0  0  0  0  0
   -3.8807    0.8663    0.5421 C   0  0  0  0  0  0  0  0  0  0  0  0
  1 18  2  0
  1 23  1  0
  2 12  1  0
  2 23  2  0
  3 14  1  0
  3 17  2  0
  4  7  1  0
  4 19  1  1
  4 20  1  0
  5 13  1  0
  5 15  1  0
  5 21  1  0
  6 22  1  0
  7 15  1  0
  8 16  1  0
  9 13  1  0
  9 20  1  0
 10 21  2  0
 11 17  1  0
 11 19  2  0
 12 14  2  0
 16 18  1  0
 17 23  1  0
 18 19  1  0
 21 22  1  0
M  END
