
     RDKit          3D

 17 17  0  0  0  0  0  0  0  0999 V2000
    4.2356   -1.6823    0.7168 C   0  0  0  0  0  0  0  0  0  0  0  0
   -3.2362    2.0127    1.7436 C   0  0  0  0  0  0  0  0  0  0  0  0
    0.3319    0.7421    0.5609 C   0  0  0  0  0  0  0  0  0  0  0  0
    5.5884   -1.0617    1.0857 C   0  0  0  0  0  0  0  0  0  0  0  0
    6.2482   -0.5068   -0.0937 N   0  0  0  0  0  0  0  0  0  0  0  0
    3.1980   -0.6256    0.3111 C   0  0  0  0  0  0  0  0  0  0  0  0
    0.7936   -0.2792   -0.4926 C   0  0  0  0  0  0  0  0  0  0  0  0
   -0.7629    1.6840    0.0303 C   0  0  0  0  0  0  0  0  0  0  0  0
   -3.1750   -0.4707   -2.1948 C   0  0  0  0  0  0  0  0  0  0  0  0
   -2.0931    0.9689   -0.3501 C   0  0  1  0  0  0  0  0  0  0  0  0
   -4.4521   -0.3958   -2.5732 C   0  0  0  0  0  0  0  0  0  0  0  0
   -5.0965    0.8293   -2.7147 O   0  0  0  0  0  0  0  0  0  0  0  0
   -3.2843    1.2042    0.4431 C   0  0  1  0  0  0  0  0  0  0  0  0
   -2.3373    0.7412   -1.8661 C   0  0  0  0  0  0  0  0  0  0  0  0
   -2.5746   -0.1488    0.6053 C   0  0  0  0  0  0  0  0  0  0  0  0
   -2.4701   -1.3573    1.1502 C   0  0  0  0  0  0  0  0  0  0  0  0
    1.8273   -1.2723    0.0610 C   0  0  0  0  0  0  0  0  0  0  0  0
  1  4  1  0
  1  6  1  0
 13  2  1  1
  3  7  1  0
  3  8  1  0
  4  5  1  0
  6 17  1  0
  7 17  1  0
 10  8  1  6
  9 11  2  3
  9 14  1  0
 10 13  1  0
 10 14  1  0
 10 15  1  0
 11 12  1  0
 13 15  1  0
 15 16  2  0
M  END
