
     RDKit          3D

 33 37  0  0  0  0  0  0  0  0999 V2000
   -2.5296   -0.9515   -0.8275 C   0  0  1  0  0  0  0  0  0  0  0  0
   -3.1298    1.3639   -0.4263 C   0  0  1  0  0  0  0  0  0  0  0  0
   -1.7040   -2.3247    1.1446 C   0  0  0  0  0  0  0  0  0  0  0  0
   -3.0718   -4.5953    0.2707 C   0  0  0  0  0  0  0  0  0  0  0  0
    4.9581   -0.0348    1.3075 C   0  0  0  0  0  0  0  0  0  0  0  0
    2.9306   -0.1664   -2.2320 C   0  0  0  0  0  0  0  0  0  0  0  0
   -1.6162   -3.5160    1.8667 C   0  0  0  0  0  0  0  0  0  0  0  0
   -0.8677    2.2839   -0.7683 C   0  0  0  0  0  0  0  0  0  0  0  0
    1.0402    0.5826   -0.8121 N   0  0  0  0  0  0  0  0  0  0  0  0
   -3.7029    2.5638    0.4098 C   0  0  0  0  0  0  0  0  0  0  0  0
   -4.0308   -3.4007   -1.5683 O   0  0  0  0  0  0  0  0  0  0  0  0
    6.3362   -0.1438    1.5003 C   0  0  0  0  0  0  0  0  0  0  0  0
    0.0204   -0.4358   -0.9945 C   0  0  0  0  0  0  0  0  0  0  0  0
   -1.3363   -0.1255   -0.6501 N   0  0  0  0  0  0  0  0  0  0  0  0
    8.5203   -1.2967    1.0365 C   0  0  0  0  0  0  0  0  0  0  0  0
   -2.2898   -4.6528    1.4244 C   0  0  0  0  0  0  0  0  0  0  0  0
    6.3786   -2.0368    0.0451 N   0  0  0  0  0  0  0  0  0  0  0  0
   -3.1813   -3.4051   -0.4592 C   0  0  0  0  0  0  0  0  0  0  0  0
    0.5992    1.9541   -0.6082 C   0  0  0  0  0  0  0  0  0  0  0  0
    0.3069   -1.5744   -1.4519 O   0  0  0  0  0  0  0  0  0  0  0  0
    2.8067   -0.8216    0.2413 C   0  0  0  0  0  0  0  0  0  0  0  0
   -4.3646    2.0836    1.7202 C   0  0  0  0  0  0  0  0  0  0  0  0
   -2.4536   -2.2574   -0.0496 C   0  0  0  0  0  0  0  0  0  0  0  0
    7.0412   -1.1687    0.8574 C   0  0  0  0  0  0  0  0  0  0  0  0
   -4.7746    3.2938   -0.4283 C   0  0  0  0  0  0  0  0  0  0  0  0
   -1.6666    1.1666   -0.1159 C   0  0  2  0  0  0  0  0  0  0  0  0
   -1.3638    3.6663   -0.2329 C   0  0  0  0  0  0  0  0  0  0  0  0
   -3.6967   -0.0624   -0.3257 C   0  0  0  0  0  0  0  0  0  0  0  0
    4.2903   -0.9468    0.4783 C   0  0  0  0  0  0  0  0  0  0  0  0
    1.4330    2.8729   -0.3817 O   0  0  0  0  0  0  0  0  0  0  0  0
    2.4819    0.2494   -0.8237 C   0  0  1  0  0  0  0  0  0  0  0  0
    5.0368   -1.9506   -0.1570 C   0  0  0  0  0  0  0  0  0  0  0  0
   -2.5524    3.5866    0.7770 C   0  0  0  0  0  0  0  0  0  0  0  0
  1 14  1  0
  1 23  1  1
  1 28  1  0
  2 10  1  0
  2 26  1  0
  2 28  1  1
  3  7  1  0
  3 23  2  0
  4 16  1  0
  4 18  2  0
  5 12  2  0
  5 29  1  0
 31  6  1  6
  7 16  2  0
  8 19  1  0
 26  8  1  6
  8 27  1  0
  9 13  1  0
  9 19  1  0
  9 31  1  0
 10 22  1  0
 10 25  1  0
 10 33  1  0
 11 18  1  0
 12 24  1  0
 13 14  1  0
 13 20  2  0
 14 26  1  0
 15 24  1  0
 17 24  2  0
 17 32  1  0
 18 23  1  0
 19 30  2  0
 21 29  1  0
 21 31  1  0
 27 33  1  0
 29 32  2  0
M  END
