
     RDKit          3D

 14 13  0  0  0  0  0  0  0  0999 V2000
   -4.1961   -0.3722   -1.6917 N   0  0  0  0  0  0  0  0  0  0  0  0
   -4.1260    1.8307   -0.5725 C   0  0  0  0  0  0  0  0  0  0  0  0
    2.0588   -1.1774    0.8701 C   0  0  0  0  0  0  0  0  0  0  0  0
   -0.4637   -0.6521    0.8218 C   0  0  1  0  0  0  0  0  0  0  0  0
    5.6485    1.1433   -0.8529 C   0  0  0  0  0  0  0  0  0  0  0  0
   -1.4780    0.4339    0.3868 C   0  0  0  0  0  0  0  0  0  0  0  0
    3.8288   -0.6443   -0.8975 C   0  0  0  0  0  0  0  0  0  0  0  0
   -2.8427    0.3000    1.0888 C   0  0  0  0  0  0  0  0  0  0  0  0
    3.4635   -0.6163    0.5969 C   0  0  0  0  0  0  0  0  0  0  0  0
   -0.9002   -2.0452    0.3308 C   0  0  0  0  0  0  0  0  0  0  0  0
   -5.0053    0.7452   -1.2134 C   0  0  0  0  0  0  0  0  0  0  0  0
    5.3089   -0.3174   -1.1479 C   0  0  0  0  0  0  0  0  0  0  0  0
   -3.7396    1.5345    0.8898 C   0  0  0  0  0  0  0  0  0  0  0  0
    0.9433   -0.2886    0.2873 C   0  0  0  0  0  0  0  0  0  0  0  0
  1 11  1  0
  2 11  1  0
  2 13  1  0
  3  9  1  0
  3 14  1  0
  4  6  1  0
  4 10  1  6
  4 14  1  0
  5 12  1  0
  6  8  1  0
  7  9  1  0
  7 12  1  0
  8 13  1  0
M  END
