
     RDKit          3D

 12 13  0  0  0  0  0  0  0  0999 V2000
   24.2845  -22.7532   -9.3961 C   0  0  1  0  0  0  0  0  0  0  0  0
   26.3947  -21.6119   -9.2137 C   0  0  0  0  0  0  0  0  0  0  0  0
   24.0411  -23.3158  -10.7926 C   0  0  0  0  0  0  0  0  0  0  0  0
   25.2749  -23.5618   -8.6753 N   0  0  0  0  0  0  0  0  0  0  0  0
   24.4811  -22.3988  -11.7336 N   0  0  0  0  0  0  0  0  0  0  0  0
   26.0901  -19.1543  -11.5513 O   0  0  0  0  0  0  0  0  0  0  0  0
   25.8246  -20.3212  -11.7954 C   0  0  0  0  0  0  0  0  0  0  0  0
   24.9478  -21.3954   -9.6547 C   0  0  1  0  0  0  0  0  0  0  0  0
   23.5202  -24.3795  -11.0831 O   0  0  0  0  0  0  0  0  0  0  0  0
   26.2511  -22.6403   -8.1089 C   0  0  0  0  0  0  0  0  0  0  0  0
   26.5458  -21.0763  -12.6600 O   0  0  0  0  0  0  0  0  0  0  0  0
   24.6946  -21.0995  -11.1270 C   0  0  2  0  0  0  0  0  0  0  0  0
  1  3  1  0
  1  4  1  1
  1  8  1  0
  8  2  1  6
  2 10  1  0
  3  5  1  0
  3  9  2  0
  4 10  1  0
  5 12  1  0
  6  7  2  0
  7 11  1  0
 12  7  1  6
  8 12  1  0
M  END
$$$$
