
     RDKit          3D

 30 31  0  0  0  0  0  0  0  0999 V2000
    8.5470   -2.6433    2.6355 C   0  0  0  0  0  0  0  0  0  0  0  0
    6.6577    2.5122    3.8386 P   0  0  0  0  0  0  0  0  0  0  0  0
    7.0793    2.7396    2.3294 O   0  0  0  0  0  0  0  0  0  0  0  0
    2.6858   -0.2779    0.5149 C   0  0  0  0  0  0  0  0  0  0  0  0
    1.8938    1.7861    0.3535 N   0  0  0  0  0  0  0  0  0  0  0  0
    8.1780    2.3567    4.5852 O   0  0  0  0  0  0  0  0  0  0  0  0
    5.0598    0.5566    1.4660 C   0  0  0  0  0  0  0  0  0  0  0  0
    9.5485   -1.9252    0.5960 O   0  0  0  0  0  0  0  0  0  0  0  0
    7.2727   -3.2486    3.1376 C   0  0  0  0  0  0  0  0  0  0  0  0
    4.1511    1.4754    1.1722 N   0  0  0  0  0  0  0  0  0  0  0  0
    9.7187    0.6941    5.4102 O   0  0  0  0  0  0  0  0  0  0  0  0
    7.2477   -1.3439    0.9478 C   0  0  0  0  0  0  0  0  0  0  0  0
    2.9848    1.0763    0.6951 C   0  0  0  0  0  0  0  0  0  0  0  0
   10.2448    2.4781    3.7326 O   0  0  0  0  0  0  0  0  0  0  0  0
    6.1297   -2.1766    3.0338 C   0  0  0  0  0  0  0  0  0  0  0  0
    1.4274   -0.4103    0.0651 N   0  0  0  0  0  0  0  0  0  0  0  0
    9.2022    1.4404    4.2640 P   0  0  0  0  0  0  0  0  0  0  0  0
    1.8130    3.2442    0.3354 C   0  0  0  0  0  0  0  0  0  0  0  0
    9.5765   -3.6906    2.9232 C   0  0  0  0  0  0  0  0  0  0  0  0
    0.9789    0.8987   -0.0604 C   0  0  0  0  0  0  0  0  0  0  0  0
    3.6239   -1.2872    0.8228 C   0  0  0  0  0  0  0  0  0  0  0  0
    7.5002   -3.7345    4.4296 O   0  0  0  0  0  0  0  0  0  0  0  0
    5.9893    1.3299    4.1737 O   0  0  0  0  0  0  0  0  0  0  0  0
    5.9541   -1.7737    1.5763 N   0  0  0  0  0  0  0  0  0  0  0  0
    8.7694    0.4698    3.2383 O   0  0  0  0  0  0  0  0  0  0  0  0
    5.8533    3.6346    4.4292 O   0  0  0  0  0  0  0  0  0  0  0  0
    8.3582   -2.3894    1.1734 C   0  0  0  0  0  0  0  0  0  0  0  0
   -0.3194    1.2048   -0.4964 N   0  0  0  0  0  0  0  0  0  0  0  0
   10.9122   -3.1978    2.8927 O   0  0  0  0  0  0  0  0  0  0  0  0
    4.8556   -0.8359    1.3066 C   0  0  0  0  0  0  0  0  0  0  0  0
  1  9  1  0
  1 19  1  0
  1 27  1  0
  2  3  1  0
  2  6  1  0
  2 23  2  0
  2 26  1  0
  4 13  2  0
  4 16  1  0
  4 21  1  0
  5 13  1  0
  5 18  1  0
  5 20  1  0
  6 17  1  0
  7 10  2  0
  7 30  1  0
  8 27  1  0
  9 15  1  0
  9 22  1  0
 10 13  1  0
 11 17  1  0
 12 24  1  0
 12 27  1  0
 14 17  2  0
 15 24  1  0
 16 20  2  0
 17 25  1  0
 19 29  1  0
 20 28  1  0
 21 30  2  0
 24 30  1  0
M  END
$$$$
