
     RDKit          3D

 45 50  0  0  0  0  0  0  0  0999 V2000
    5.4650    2.7071    3.5531 S   0  0  0  0  0  0  0  0  0  0  0  0
   10.9842    0.8466    4.9811 C   0  0  0  0  0  0  0  0  0  0  0  0
    9.5550    0.8095    6.9550 C   0  0  0  0  0  0  0  0  0  0  0  0
    1.6611    0.5652   -0.3333 N   0  0  0  0  0  0  0  0  0  0  0  0
    4.0269   -0.7563    1.3218 N   0  0  0  0  0  0  0  0  0  0  0  0
   10.0324    1.2417   -0.3680 C   0  0  0  0  0  0  0  0  0  0  0  0
    7.9766   -1.2145    3.1196 C   0  0  0  0  0  0  0  0  0  0  0  0
    7.9719   -2.6208    2.7074 C   0  0  0  0  0  0  0  0  0  0  0  0
    8.6073   -0.0993    2.6198 C   0  0  0  0  0  0  0  0  0  0  0  0
    7.1941   -0.8012    4.0899 N   0  0  0  0  0  0  0  0  0  0  0  0
    2.9222   -1.7074    1.4962 C   0  0  0  0  0  0  0  0  0  0  0  0
    9.5570    2.7164    5.5573 O   0  0  0  0  0  0  0  0  0  0  0  0
   11.2130   -5.4250    3.1805 C   0  0  0  0  0  0  0  0  0  0  0  0
    9.2243   -3.5239    2.9182 C   0  0  0  0  0  0  0  0  0  0  0  0
    6.9297   -3.5092    3.4328 C   0  0  0  0  0  0  0  0  0  0  0  0
    9.6588    1.3136    5.5416 C   0  0  0  0  0  0  0  0  0  0  0  0
   10.5222   -3.2099    2.6173 C   0  0  0  0  0  0  0  0  0  0  0  0
   -0.5776    1.3792   -0.5522 C   0  0  0  0  0  0  0  0  0  0  0  0
    3.4284   -2.8666    2.3727 C   0  0  0  0  0  0  0  0  0  0  0  0
    7.4871   -4.8816    3.5553 C   0  0  0  0  0  0  0  0  0  0  0  0
    8.6207    0.7644    5.3499 C   0  0  0  0  0  0  0  0  0  0  0  0
    8.3248    0.9601    3.5161 N   0  0  0  0  0  0  0  0  0  0  0  0
    8.9355   -4.7456    3.3627 C   0  0  0  0  0  0  0  0  0  0  0  0
    5.8383   -3.6235    2.5403 N   0  0  0  0  0  0  0  0  0  0  0  0
    9.3192    0.0513    1.4817 N   0  0  0  0  0  0  0  0  0  0  0  0
   11.5140   -4.1421    2.7488 C   0  0  0  0  0  0  0  0  0  0  0  0
    4.2044    2.0236    2.6546 N   0  0  0  0  0  0  0  0  0  0  0  0
    1.3260    2.5027    0.6214 C   0  0  0  0  0  0  0  0  0  0  0  0
    9.0103   -0.7933    0.4004 C   0  0  0  0  0  0  0  0  0  0  0  0
    6.4420    3.2090    2.5413 O   0  0  0  0  0  0  0  0  0  0  0  0
    9.9020   -5.7380    3.5065 C   0  0  0  0  0  0  0  0  0  0  0  0
    7.3618    0.5398    4.1936 C   0  0  0  0  0  0  0  0  0  0  0  0
    8.3459   -0.2414   -1.6980 O   0  0  0  0  0  0  0  0  0  0  0  0
    4.7717    3.8230    4.4047 O   0  0  0  0  0  0  0  0  0  0  0  0
    4.8701   -2.5563    2.5213 C   0  0  0  0  0  0  0  0  0  0  0  0
    2.7729    0.9547    0.2447 C   0  0  0  0  0  0  0  0  0  0  0  0
    3.6232    2.9497    1.7004 C   0  0  0  0  0  0  0  0  0  0  0  0
    0.7762    1.4741   -0.1247 N   0  0  0  0  0  0  0  0  0  0  0  0
    5.2253   -1.5734    1.3900 C   0  0  0  0  0  0  0  0  0  0  0  0
    6.1988    1.4573    4.6722 C   0  0  0  0  0  0  0  0  0  0  0  0
    2.6233    2.1637    0.8668 C   0  0  0  0  0  0  0  0  0  0  0  0
    9.5913   -0.1410   -0.8330 C   0  0  0  0  0  0  0  0  0  0  0  0
   10.3520    1.0454    1.0851 C   0  0  0  0  0  0  0  0  0  0  0  0
    4.0377    0.0884    0.1288 C   0  0  0  0  0  0  0  0  0  0  0  0
    4.0804   -0.5526   -1.2798 C   0  0  0  0  0  0  0  0  0  0  0  0
  1 27  1  0
  1 30  2  0
  1 34  1  0
  1 40  1  0
  2 16  1  0
  3 16  1  0
  4 36  4  0
  4 38  4  0
  5 11  1  0
  5 39  1  0
  5 44  1  0
  6 42  1  0
  6 43  1  0
  7  8  1  0
  7  9  4  0
  7 10  4  0
  8 14  1  0
  8 15  1  0
  9 22  4  0
  9 25  1  0
 10 32  4  0
 11 19  1  0
 12 16  1  0
 13 26  4  0
 13 31  4  0
 14 17  4  0
 14 23  4  0
 15 20  1  0
 15 24  1  0
 16 21  1  0
 17 26  4  0
 18 38  1  0
 19 35  1  0
 20 23  1  0
 22 32  4  0
 23 31  4  0
 24 35  1  0
 25 29  1  0
 25 43  1  0
 27 37  1  0
 28 38  4  0
 28 41  4  0
 29 42  1  0
 32 40  1  0
 33 42  1  0
 35 39  1  0
 36 41  4  0
 36 44  1  0
 37 41  1  0
 44 45  1  0
M  END
$$$$
