
     RDKit          3D

 34 38  0  0  0  0  0  0  0  0999 V2000
    8.1321    0.6118    1.7377 C   0  0  0  0  0  0  0  0  0  0  0  0
    4.6456   -2.0338    2.2278 C   0  0  0  0  0  0  0  0  0  0  0  0
    6.9073   -0.1428    1.8169 N   0  0  0  0  0  0  0  0  0  0  0  0
    2.5013    0.0860    0.1243 C   0  0  0  0  0  0  0  0  0  0  0  0
   10.5595   -0.1133    1.5100 C   0  0  0  0  0  0  0  0  0  0  0  0
    3.9615   -2.7429    2.2057 N   0  0  0  0  0  0  0  0  0  0  0  0
    9.1598    2.1691    5.3035 O   0  0  0  0  0  0  0  0  0  0  0  0
    8.5409   -1.4675    2.1503 C   0  0  0  0  0  0  0  0  0  0  0  0
    5.4736    0.1790    1.5869 C   0  0  0  0  0  0  0  0  0  0  0  0
    0.8916    1.4598   -0.7746 C   0  0  0  0  0  0  0  0  0  0  0  0
    4.4584   -0.8814    1.4927 C   0  0  0  0  0  0  0  0  0  0  0  0
    9.1478   -0.2964    1.7790 C   0  0  0  0  0  0  0  0  0  0  0  0
    3.2822   -0.8792    1.0138 C   0  0  0  0  0  0  0  0  0  0  0  0
    7.2203   -1.3977    2.4972 C   0  0  0  0  0  0  0  0  0  0  0  0
    8.0090   -4.4658    2.1735 O   0  0  0  0  0  0  0  0  0  0  0  0
    4.6874    0.7233    4.7822 O   0  0  0  0  0  0  0  0  0  0  0  0
    2.0615    1.6513   -1.4765 N   0  0  0  0  0  0  0  0  0  0  0  0
    8.1225    1.7198    1.4177 O   0  0  0  0  0  0  0  0  0  0  0  0
    9.4201   -2.5691    2.4735 C   0  0  0  0  0  0  0  0  0  0  0  0
   10.7671   -2.4825    1.9993 C   0  0  0  0  0  0  0  0  0  0  0  0
    5.3899    1.7969    4.0995 P   0  0  0  0  0  0  0  0  0  0  0  0
    2.9654    0.8229   -0.9030 N   0  0  0  0  0  0  0  0  0  0  0  0
    8.1297    2.2282    3.8372 P   0  0  0  0  0  0  0  0  0  0  0  0
    6.9285    1.5397    4.2116 O   0  0  0  0  0  0  0  0  0  0  0  0
    8.0723    3.7650    3.5456 O   0  0  0  0  0  0  0  0  0  0  0  0
    2.6920   -1.8731    1.3643 C   0  0  0  0  0  0  0  0  0  0  0  0
    5.0870    3.1984    4.4541 O   0  0  0  0  0  0  0  0  0  0  0  0
    1.1580    0.4424    0.2644 N   0  0  0  0  0  0  0  0  0  0  0  0
   -0.2631    1.9631   -0.8136 N   0  0  0  0  0  0  0  0  0  0  0  0
    4.7672    1.4759    2.2066 C   0  0  0  0  0  0  0  0  0  0  0  0
    9.0489   -4.3968    3.7174 O   0  0  0  0  0  0  0  0  0  0  0  0
    4.4101   -0.4814    1.3182 C   0  0  0  0  0  0  0  0  0  0  0  0
    8.8088   -3.7961    2.7830 N   0  0  0  0  0  0  0  0  0  0  0  0
   11.3885   -1.2182    1.6499 C   0  0  0  0  0  0  0  0  0  0  0  0
  1  3  1  0
  1 12  1  0
  1 18  2  0
  2  6  4  0
  2 11  4  0
  3  9  1  0
  3 14  1  0
  4 13  1  0
  4 22  4  0
  4 28  4  0
  5 12  4  0
  5 34  4  0
  6 26  4  0
  7 23  1  0
  8 12  4  0
  8 14  1  0
  8 19  4  0
  9 11  1  0
  9 30  1  0
  9 32  1  0
 10 17  4  0
 10 28  4  0
 10 29  1  0
 11 13  4  0
 13 26  4  0
 13 32  4  0
 15 33  2  0
 16 21  2  0
 17 22  4  0
 19 20  4  0
 19 33  1  0
 20 34  4  0
 21 24  1  0
 21 27  1  0
 21 30  1  0
 23 24  1  0
 23 25  2  0
 31 33  1  0
M  CHG  2  31  -1  33   1
M  END
$$$$
