
     RDKit          3D

 29 30  0  0  0  0  0  0  0  0999 V2000
    4.1493   -0.6900   -0.5009 C   0  0  0  0  0  0  0  0  0  0  0  0
    7.1241    1.5570    2.2075 O   0  0  0  0  0  0  0  0  0  0  0  0
    3.2941    0.7118    1.4030 N   0  0  0  0  0  0  0  0  0  0  0  0
    7.2960   -4.6833    3.1252 C   0  0  0  0  0  0  0  0  0  0  0  0
    3.4744    0.0953   -1.4511 O   0  0  0  0  0  0  0  0  0  0  0  0
    0.2101    1.3373   -0.4470 C   0  0  0  0  0  0  0  0  0  0  0  0
    7.7772   -2.3877    2.1109 C   0  0  0  0  0  0  0  0  0  0  0  0
    0.1887    2.6704   -0.5419 N   0  0  0  0  0  0  0  0  0  0  0  0
    3.7938   -0.5019    0.9013 C   0  0  0  0  0  0  0  0  0  0  0  0
    1.3000    3.4282    0.0964 C   0  0  0  0  0  0  0  0  0  0  0  0
    8.1306    3.4108    3.6001 O   0  0  0  0  0  0  0  0  0  0  0  0
    6.6955    2.5578    3.4567 P   0  0  0  0  0  0  0  0  0  0  0  0
    9.9906   -1.7656    1.8184 N   0  0  0  0  0  0  0  0  0  0  0  0
    9.5364    2.2356    1.4533 O   0  0  0  0  0  0  0  0  0  0  0  0
    8.1980   -3.6046    2.6507 C   0  0  0  0  0  0  0  0  0  0  0  0
    8.6975   -1.4209    1.7352 C   0  0  0  0  0  0  0  0  0  0  0  0
    9.5932    0.9592    3.1173 O   0  0  0  0  0  0  0  0  0  0  0  0
    8.6923    1.1774    1.9728 P   0  0  0  0  0  0  0  0  0  0  0  0
    5.5773    3.4383    3.1406 O   0  0  0  0  0  0  0  0  0  0  0  0
   10.2389   -2.9102    2.2850 C   0  0  0  0  0  0  0  0  0  0  0  0
    2.3559    1.3681    0.6650 C   0  0  0  0  0  0  0  0  0  0  0  0
    8.7421   -0.2741    1.3609 N   0  0  0  0  0  0  0  0  0  0  0  0
    2.4360    2.7929    0.4849 C   0  0  0  0  0  0  0  0  0  0  0  0
    3.9344   -1.6942    1.8701 C   0  0  0  0  0  0  0  0  0  0  0  0
    5.3035   -1.9416    1.9160 N   0  0  0  0  0  0  0  0  0  0  0  0
    1.2674    0.7027    0.0864 N   0  0  0  0  0  0  0  0  0  0  0  0
    9.4693   -3.8791    2.7744 N   0  0  0  0  0  0  0  0  0  0  0  0
    6.4951    1.7159    4.6827 O   0  0  0  0  0  0  0  0  0  0  0  0
    6.4274   -2.1244    1.9340 C   0  0  0  0  0  0  0  0  0  0  0  0
  1  5  1  0
  1  9  1  0
  2 12  1  0
  2 18  1  0
  3  9  1  0
  3 21  2  3
  4 15  1  0
  6  8  1  0
  6 26  2  0
  7 15  2  0
  7 16  1  0
  7 29  1  0
  8 10  1  0
  9 24  1  0
 10 23  2  0
 11 12  1  0
 12 19  2  0
 12 28  1  0
 13 16  2  0
 13 20  1  0
 14 18  2  0
 15 27  1  0
 16 22  1  0
 17 18  1  0
 18 22  1  0
 20 27  2  0
 21 23  1  0
 21 26  1  0
 24 25  1  0
 25 29  3  0
M  END
$$$$
