
     RDKit          3D

 28 29  0  0  0  0  0  0  0  0999 V2000
    5.7309   -0.5972    2.7329 C   0  0  0  0  0  0  0  0  0  0  0  0
    7.7059    1.5844    4.3835 O   0  0  0  0  0  0  0  0  0  0  0  0
    6.5580    3.7116    3.5603 O   0  0  0  0  0  0  0  0  0  0  0  0
    6.5255    1.6280    5.1623 P   0  0  0  0  0  0  0  0  0  0  0  0
    6.7871   -1.6572    2.7236 N   0  0  0  0  0  0  0  0  0  0  0  0
    1.6769   -0.6041    0.2069 N   0  0  0  0  0  0  0  0  0  0  0  0
    1.9361    2.8283    0.1041 C   0  0  0  0  0  0  0  0  0  0  0  0
    2.7953    4.0328    0.3686 N   0  0  0  0  0  0  0  0  0  0  0  0
    7.7676    2.6997    3.3644 P   0  0  0  0  0  0  0  0  0  0  0  0
   10.5815   -1.2576    0.7522 N   0  0  0  0  0  0  0  0  0  0  0  0
    5.3401    1.4861    4.4216 O   0  0  0  0  0  0  0  0  0  0  0  0
    7.5346   -3.8258    3.1969 C   0  0  0  0  0  0  0  0  0  0  0  0
    3.7262    1.1412    0.8665 C   0  0  0  0  0  0  0  0  0  0  0  0
    6.5302   -2.9058    3.1916 C   0  0  0  0  0  0  0  0  0  0  0  0
    9.0162   -2.1737    2.3853 C   0  0  0  0  0  0  0  0  0  0  0  0
    2.5173    1.6478    0.3614 C   0  0  0  0  0  0  0  0  0  0  0  0
    8.8229   -3.4724    2.7830 C   0  0  0  0  0  0  0  0  0  0  0  0
    2.8494   -1.1146    0.7625 C   0  0  0  0  0  0  0  0  0  0  0  0
    0.1661    1.5530   -0.5695 S   0  0  0  0  0  0  0  0  0  0  0  0
    6.4717    0.5216    6.1483 O   0  0  0  0  0  0  0  0  0  0  0  0
    5.3440   -0.7371    1.1959 C   0  0  0  0  0  0  0  0  0  0  0  0
    9.1309    3.2895    3.4072 O   0  0  0  0  0  0  0  0  0  0  0  0
    1.5602    0.7135    0.0486 C   0  0  0  0  0  0  0  0  0  0  0  0
   10.4023   -1.7262    1.9309 C   0  0  0  0  0  0  0  0  0  0  0  0
    0.7519    3.0564   -0.3600 N   0  0  0  0  0  0  0  0  0  0  0  0
    8.0193   -1.2101    2.3724 C   0  0  0  0  0  0  0  0  0  0  0  0
   11.3786   -1.8060    2.6895 O   0  0  0  0  0  0  0  0  0  0  0  0
    3.9436   -0.2268    0.9521 C   0  0  0  0  0  0  0  0  0  0  0  0
  1  5  1  0
  1 21  1  0
  2  4  1  0
  2  9  1  0
  3  9  1  0
  4 11  2  0
  4 20  1  0
  5 14  1  0
  5 26  1  0
  6 18  2  0
  6 23  1  0
  7  8  1  0
  7 16  1  0
  7 25  2  0
  9 22  2  0
 10 24  1  0
 12 14  2  0
 12 17  1  0
 13 16  1  0
 13 28  2  0
 15 17  2  0
 15 24  1  0
 15 26  1  0
 16 23  2  0
 18 28  1  0
 19 23  1  0
 19 25  1  0
 21 28  1  0
 24 27  2  0
M  END
$$$$
