
     RDKit          3D

 27 27  0  0  0  0  0  0  0  0999 V2000
    1.3618    0.4230   -0.1577 N   0  0  0  0  0  0  0  0  0  0  0  0
   10.1410   -2.1318    1.0591 C   0  0  0  0  0  0  0  0  0  0  0  0
    5.0850    1.7699    2.1311 N   0  0  0  0  0  0  0  0  0  0  0  0
    4.3952    3.9109    1.6776 O   0  0  0  0  0  0  0  0  0  0  0  0
    3.5934   -0.2841   -0.6311 C   0  0  0  0  0  0  0  0  0  0  0  0
    2.4078    0.3861   -1.1042 C   0  0  0  0  0  0  0  0  0  0  0  0
    6.3507    1.1718    4.6846 O   0  0  0  0  0  0  0  0  0  0  0  0
    6.7503   -4.3032    2.7426 O   0  0  0  0  0  0  0  0  0  0  0  0
    0.9358    1.7318    0.2640 C   0  0  0  0  0  0  0  0  0  0  0  0
    3.5552   -0.8341    0.8391 C   0  0  0  0  0  0  0  0  0  0  0  0
   -0.1738    2.1227   -0.7017 C   0  0  0  0  0  0  0  0  0  0  0  0
    6.4636    1.9800    2.2387 C   0  0  0  0  0  0  0  0  0  0  0  0
    7.1760    2.1132    3.8431 P   0  0  0  0  0  0  0  0  0  0  0  0
    4.1800    2.6545    1.6832 C   0  0  0  0  0  0  0  0  0  0  0  0
    6.9700   -3.1331    2.9526 C   0  0  0  0  0  0  0  0  0  0  0  0
    4.8753   -1.4282    1.3413 C   0  0  0  0  0  0  0  0  0  0  0  0
    8.5116    1.3633    3.7459 O   0  0  0  0  0  0  0  0  0  0  0  0
    8.8574   -2.5454    1.3162 C   0  0  0  0  0  0  0  0  0  0  0  0
   11.0241   -1.7576    2.1422 C   0  0  0  0  0  0  0  0  0  0  0  0
   10.5375   -1.7885    3.4126 C   0  0  0  0  0  0  0  0  0  0  0  0
    8.3857   -2.5749    2.6396 C   0  0  0  0  0  0  0  0  0  0  0  0
    2.0791    2.6506    0.3287 C   0  0  0  0  0  0  0  0  0  0  0  0
    4.6726   -2.1648    2.6642 C   0  0  0  0  0  0  0  0  0  0  0  0
    5.9163   -2.3152    3.4647 N   0  0  0  0  0  0  0  0  0  0  0  0
    9.2224   -2.2079    3.7076 C   0  0  0  0  0  0  0  0  0  0  0  0
    3.0623    2.0982    1.2546 N   0  0  0  0  0  0  0  0  0  0  0  0
    7.0415    3.5899    4.1821 O   0  0  0  0  0  0  0  0  0  0  0  0
  1  6  1  0
  1  9  1  0
  2 18  1  0
  2 19  2  0
  3 12  1  0
  3 14  1  0
  4 14  2  0
  5  6  1  0
  5 10  1  0
  7 13  2  0
  8 15  2  0
  9 11  1  0
  9 22  1  0
 10 16  1  0
 12 13  1  0
 13 17  1  0
 13 27  1  0
 14 26  1  0
 15 21  1  0
 15 24  1  0
 16 23  2  3
 18 21  2  0
 19 20  1  0
 20 25  2  0
 21 25  1  0
 22 26  1  0
 23 24  1  0
M  END
$$$$
