
     RDKit          3D

 28 31  0  0  0  0  0  0  0  0999 V2000
    5.0974   -1.3684    2.1420 C   0  0  0  0  0  0  0  0  0  0  0  0
    6.3760   -2.9935    3.2705 C   0  0  0  0  0  0  0  0  0  0  0  0
   11.2413   -3.4617    1.8619 O   0  0  0  0  0  0  0  0  0  0  0  0
    5.0102   -2.7408    2.7511 C   0  0  0  0  0  0  0  0  0  0  0  0
    7.4290   -2.0026    2.8214 C   0  0  0  0  0  0  0  0  0  0  0  0
    6.5733   -0.9981    1.9693 C   0  0  0  0  0  0  0  0  0  0  0  0
    2.9775    1.2520    0.9540 C   0  0  0  0  0  0  0  0  0  0  0  0
    5.8188    2.5863    4.0146 O   0  0  0  0  0  0  0  0  0  0  0  0
    1.6670    2.7022    0.2580 N   0  0  0  0  0  0  0  0  0  0  0  0
    6.7749    0.5986    3.4056 O   0  0  0  0  0  0  0  0  0  0  0  0
    7.9776    2.6255    2.4690 O   0  0  0  0  0  0  0  0  0  0  0  0
    6.8035   -4.1318    2.5379 O   0  0  0  0  0  0  0  0  0  0  0  0
    7.5786   -0.1253    2.7567 C   0  0  0  0  0  0  0  0  0  0  0  0
   12.0203   -1.2358    2.7215 O   0  0  0  0  0  0  0  0  0  0  0  0
    8.6168   -2.3295    2.2065 N   0  0  0  0  0  0  0  0  0  0  0  0
    2.1007   -0.6275    0.3387 N   0  0  0  0  0  0  0  0  0  0  0  0
    9.6110   -1.6949    2.7342 N   0  0  0  0  0  0  0  0  0  0  0  0
    8.2969    2.5371    5.2054 O   0  0  0  0  0  0  0  0  0  0  0  0
    1.1798    1.5520   -0.1434 C   0  0  0  0  0  0  0  0  0  0  0  0
    3.9969   -0.6864    1.5264 N   0  0  0  0  0  0  0  0  0  0  0  0
    3.4369    3.5635    1.4414 N   0  0  0  0  0  0  0  0  0  0  0  0
    2.7743    2.5891    0.9256 C   0  0  0  0  0  0  0  0  0  0  0  0
   10.9141   -2.0851    2.4967 C   0  0  0  0  0  0  0  0  0  0  0  0
    3.9756    0.5540    1.5752 C   0  0  0  0  0  0  0  0  0  0  0  0
    2.9954   -1.3614    0.9065 C   0  0  0  0  0  0  0  0  0  0  0  0
    7.1546    2.1447    3.8370 P   0  0  0  0  0  0  0  0  0  0  0  0
    0.0405    1.4602   -0.7482 N   0  0  0  0  0  0  0  0  0  0  0  0
    2.0590    0.5876    0.2858 C   0  0  0  0  0  0  0  0  0  0  0  0
  1  4  1  0
  1  6  1  0
  1 20  1  0
  2  4  1  0
  2  5  1  0
  2 12  1  0
  3 23  2  0
  5  6  1  0
  5 13  1  0
  5 15  1  0
  6 13  1  0
  7 22  1  0
  7 24  1  0
  7 28  1  0
  8 26  2  0
  9 19  2  0
  9 22  1  0
 10 13  1  0
 10 26  1  0
 11 26  1  0
 14 23  1  0
 15 17  1  0
 16 25  1  0
 16 28  2  0
 17 23  1  0
 18 26  1  0
 19 27  1  0
 19 28  1  0
 20 24  1  0
 20 25  1  0
 21 22  2  0
M  END
$$$$
