
     RDKit          3D

 10 10  0  0  0  0  0  0  0  0999 V2000
    3.1614    0.7980   -0.5302 O   0  0  0  0  0  0  0  0  0  0  0  0
   -0.3772    1.1382   -0.7459 O   0  0  0  0  0  0  0  0  0  0  0  0
   -1.8665   -1.7874    0.6038 O   0  0  0  0  0  0  0  0  0  0  0  0
   -2.2504    1.3017    0.5817 O   0  0  0  0  0  0  0  0  0  0  0  0
    1.8735    0.8992   -0.0136 C   0  0  0  0  0  0  0  0  0  0  0  0
    0.7268    0.2564   -0.7375 C   0  0  1  0  0  0  0  0  0  0  0  0
    1.6797    1.4984    1.0785 O   0  0  0  0  0  0  0  0  0  0  0  0
   -1.4828    0.4422   -0.2157 C   0  0  2  0  0  0  0  0  0  0  0  0
    0.3229   -1.0592   -0.0759 C   0  0  0  0  0  0  0  0  0  0  0  0
   -0.9640   -0.7131    0.6178 C   0  0  2  0  0  0  0  0  0  0  0  0
  1  5  1  0
  2  6  1  0
  2  8  1  0
 10  3  1  6
  8  4  1  1
  6  5  1  1
  5  7  2  0
  6  9  1  0
  8 10  1  0
  9 10  1  0
M  END
