
     RDKit          3D

 16 15  0  0  0  0  0  0  0  0999 V2000
    0.7559   -0.7883    1.4604 O   0  0  0  0  0  0  0  0  0  0  0  0
    2.0638   -0.6701   -0.5812 C   0  0  1  0  0  0  0  0  0  0  0  0
   -1.2559    2.5910   -0.4534 C   0  0  0  0  0  0  0  0  0  0  0  0
   -2.1132   -0.6173    1.3039 C   0  0  0  0  0  0  0  0  0  0  0  0
   -1.0817    2.4031   -1.6861 O   0  0  0  0  0  0  0  0  0  0  0  0
    0.8167   -0.1785    0.1937 C   0  0  1  0  0  0  0  0  0  0  0  0
    2.2093    0.0522   -1.7786 O   0  0  0  0  0  0  0  0  0  0  0  0
    3.8278    0.8250    0.4916 N   0  0  0  0  0  0  0  0  0  0  0  0
    3.8834   -1.4851    0.7447 O   0  0  0  0  0  0  0  0  0  0  0  0
   -0.4883   -0.4358   -0.6044 C   0  0  0  0  0  0  0  0  0  0  0  0
   -2.2546   -0.0238    2.4077 O   0  0  0  0  0  0  0  0  0  0  0  0
   -1.7674    0.1605    0.0537 C   0  0  2  0  0  0  0  0  0  0  0  0
    3.3071   -0.4821    0.2448 C   0  0  0  0  0  0  0  0  0  0  0  0
   -1.5706    1.5383    0.4183 O   0  0  0  0  0  0  0  0  0  0  0  0
   -2.9651    0.0415   -0.9091 C   0  0  0  0  0  0  0  0  0  0  0  0
   -2.2938   -1.9971    1.2402 O   0  0  0  0  0  0  0  0  0  0  0  0
  6  1  1  1
  2  6  1  0
  2  7  1  6
  2 13  1  0
  3  5  2  0
  3 14  1  0
  4 11  2  0
  4 12  1  0
  4 16  1  0
  6 10  1  0
  8 13  1  0
  9 13  2  0
 10 12  1  0
 12 14  1  0
 12 15  1  6
M  END
