
     RDKit          3D

 12 12  0  0  0  0  0  0  0  0999 V2000
    4.0589    0.6371   -0.3588 O   0  0  0  0  0  0  0  0  0  0  0  0
   -2.7201   -0.1466    0.2246 N   0  0  0  0  0  0  0  0  0  0  0  0
   -1.7397   -0.5315    1.2393 C   0  0  0  0  0  0  0  0  0  0  0  0
    1.3040    0.8780   -0.4631 O   0  0  0  0  0  0  0  0  0  0  0  0
    0.0774    0.1788   -0.3619 C   0  0  2  0  0  0  0  0  0  0  0  0
    2.6066   -0.9598   -1.8281 O   0  0  0  0  0  0  0  0  0  0  0  0
   -0.9355    0.8439   -1.3040 C   0  0  0  0  0  0  0  0  0  0  0  0
   -2.3282    0.3341   -1.0678 C   0  0  0  0  0  0  0  0  0  0  0  0
   -0.4338    0.2553    1.0859 C   0  0  0  0  0  0  0  0  0  0  0  0
   -3.1803    0.4023   -1.9930 O   0  0  0  0  0  0  0  0  0  0  0  0
    2.6098   -0.2226   -0.5077 P   0  0  0  0  0  0  0  0  0  0  0  0
    2.4906   -1.3361    0.7625 O   0  0  0  0  0  0  0  0  0  0  0  0
  1 11  1  0
  2  3  1  0
  2  8  1  0
  3  9  1  0
  5  4  1  1
  4 11  1  0
  5  7  1  0
  5  9  1  0
  6 11  2  0
  7  8  1  0
  8 10  2  0
 11 12  1  0
M  END
