
     RDKit          3D

 12 11  0  0  0  0  0  0  0  0999 V2000
    0.5426   -0.6809    0.1313 C   0  0  0  0  0  0  0  0  0  0  0  0
   -1.7488    0.4711    0.1059 C   0  0  0  0  0  0  0  0  0  0  0  0
   -1.6135    0.7856   -1.3189 N   0  0  0  0  0  0  0  0  0  0  0  0
   -2.0707    2.0477   -1.5085 O   0  0  0  0  0  0  0  0  0  0  0  0
    1.0971    0.4554    0.7553 O   0  0  0  0  0  0  0  0  0  0  0  0
   -1.5459   -2.0359   -0.2294 C   0  0  0  0  0  0  0  0  0  0  0  0
    2.9078    0.6242   -1.3584 O   0  0  0  0  0  0  0  0  0  0  0  0
   -0.9582   -0.8102    0.4925 C   0  0  1  0  0  0  0  0  0  0  0  0
    3.4971   -0.6358    0.8643 O   0  0  0  0  0  0  0  0  0  0  0  0
    2.7443    0.5606    0.3259 P   0  0  0  0  0  0  0  0  0  0  0  0
    3.3963    1.9690    0.9987 O   0  0  0  0  0  0  0  0  0  0  0  0
   -1.0923   -1.0411    1.8761 O   0  0  0  0  0  0  0  0  0  0  0  0
  1  5  1  0
  1  8  1  0
  2  3  1  0
  2  8  1  0
  3  4  1  0
  5 10  1  0
  8  6  1  6
  7 10  1  0
  8 12  1  0
  9 10  2  0
 10 11  1  0
M  END
