
     RDKit          3D

 14 14  0  0  0  0  0  0  0  0999 V2000
  -18.1017   21.2584   69.5075 C   0  0  1  0  0  0  0  0  0  0  0  0
  -16.9166   23.2623   66.2865 C   0  0  0  0  0  0  0  0  0  0  0  0
  -16.2815   21.2801   72.3930 S   0  0  0  0  0  0  0  0  0  0  0  0
  -17.7459   20.3013   71.8932 C   0  0  2  0  0  0  0  0  0  0  0  0
  -19.3943   19.1370   73.2922 N   0  0  0  0  0  0  0  0  0  0  0  0
  -16.1165   22.6660   68.6346 C   0  0  0  0  0  0  0  0  0  0  0  0
  -18.6911   21.0272   70.9224 C   0  0  0  0  0  0  0  0  0  0  0  0
  -19.2199   21.0826   68.4692 C   0  0  0  0  0  0  0  0  0  0  0  0
  -16.7949   21.4747   74.1145 C   0  0  0  0  0  0  0  0  0  0  0  0
  -16.1528   22.2737   67.1589 C   0  0  0  0  0  0  0  0  0  0  0  0
  -16.8401   22.8576   64.9250 O   0  0  0  0  0  0  0  0  0  0  0  0
  -17.4661   22.6624   69.3668 C   0  0  0  0  0  0  0  0  0  0  0  0
  -18.4609   20.0224   73.2122 C   0  0  0  0  0  0  0  0  0  0  0  0
  -18.0344   20.7618   74.2732 N   0  0  0  0  0  0  0  0  0  0  0  0
  1  7  1  0
  1  8  1  6
  1 12  1  0
  2 10  1  0
  2 11  1  0
  3  4  1  0
  3  9  1  0
  4  7  1  6
  4 13  1  0
  5 13  2  0
  6 10  1  0
  6 12  1  0
  9 14  1  0
 13 14  1  0
M  END
$$$$
