
     RDKit          3D

 17 19  0  0  0  0  0  0  0  0999 V2000
  -14.1678   32.3463    2.1591 O   0  0  0  0  0  0  0  0  0  0  0  0
  -17.4257   35.9580    3.2842 C   0  0  0  0  0  0  0  0  0  0  0  0
  -16.9468   34.6497    3.3528 C   0  0  0  0  0  0  0  0  0  0  0  0
  -14.7151   33.3333    3.0471 C   0  0  2  0  0  0  0  0  0  0  0  0
  -17.5058   33.7533    4.2021 N   0  0  0  0  0  0  0  0  0  0  0  0
  -15.8103   34.1986    2.4702 C   0  0  2  0  0  0  0  0  0  0  0  0
  -14.4206   34.7544    2.6799 C   0  0  0  0  0  0  0  0  0  0  0  0
  -18.4858   36.3577    4.1005 C   0  0  0  0  0  0  0  0  0  0  0  0
  -21.3701   35.0610    5.9032 C   0  0  0  0  0  0  0  0  0  0  0  0
  -18.5338   34.1672    4.9854 C   0  0  0  0  0  0  0  0  0  0  0  0
  -21.1818   37.3302    7.5127 C   0  0  0  0  0  0  0  0  0  0  0  0
  -20.1185   36.9693    6.6787 C   0  0  0  0  0  0  0  0  0  0  0  0
  -22.4357   35.4200    6.7353 C   0  0  0  0  0  0  0  0  0  0  0  0
  -20.1926   35.8285    5.8598 C   0  0  0  0  0  0  0  0  0  0  0  0
  -22.3362   36.5533    7.5367 C   0  0  0  0  0  0  0  0  0  0  0  0
  -19.0736   35.4512    4.9851 C   0  0  0  0  0  0  0  0  0  0  0  0
  -23.6452   36.9960    8.5606 Cl  0  0  0  0  0  0  0  0  0  0  0  0
  4  1  1  6
  2  3  1  0
  2  8  2  0
  3  5  2  0
  6  3  1  1
  4  6  1  0
  4  7  1  0
  5 10  1  0
  6  7  1  0
  8 16  1  0
  9 13  1  0
  9 14  2  0
 10 16  2  0
 11 12  2  0
 11 15  1  0
 12 14  1  0
 13 15  2  0
 14 16  1  0
 15 17  1  0
M  END
$$$$
