
     RDKit          3D

 24 27  0  0  0  0  0  0  0  0999 V2000
   -2.6056    1.0273   -1.2351 C   0  0  0  0  0  0  0  0  0  0  0  0
    2.9877   -0.1777    1.0183 C   0  0  0  0  0  0  0  0  0  0  0  0
    3.7860   -0.6895    2.0437 C   0  0  0  0  0  0  0  0  0  0  0  0
   -4.6594    1.3535    1.6970 O   0  0  0  0  0  0  0  0  0  0  0  0
   -0.1474   -0.8899   -1.5259 C   0  0  0  0  0  0  0  0  0  0  0  0
   -1.7969    0.0991    1.0386 C   0  0  0  0  0  0  0  0  0  0  0  0
    1.2378   -1.4550   -1.8998 C   0  0  0  0  0  0  0  0  0  0  0  0
    1.2479    0.8618   -0.2251 C   0  0  1  0  0  0  0  0  0  0  0  0
   -4.5134   -2.5115    0.6667 O   0  0  0  0  0  0  0  0  0  0  0  0
   -1.2603    2.4761    0.3046 C   0  0  0  0  0  0  0  0  0  0  0  0
   -3.9936    1.3048   -0.6375 C   0  0  0  0  0  0  0  0  0  0  0  0
    5.7033   -0.5511    0.5476 C   0  0  0  0  0  0  0  0  0  0  0  0
    1.5252    0.0468    1.0627 C   0  0  0  0  0  0  0  0  0  0  0  0
    2.4828    0.6385   -1.1530 C   0  0  2  0  0  0  0  0  0  0  0  0
    5.1603   -0.8741    1.8052 C   0  0  0  0  0  0  0  0  0  0  0  0
    2.2155   -0.3508   -2.3103 C   0  0  0  0  0  0  0  0  0  0  0  0
   -3.3147   -1.8644    0.3356 C   0  0  0  0  0  0  0  0  0  0  0  0
    5.9914   -1.3761    2.8037 O   0  0  0  0  0  0  0  0  0  0  0  0
    3.5160    0.1195   -0.2138 C   0  0  0  0  0  0  0  0  0  0  0  0
    4.8795   -0.0502   -0.4717 C   0  0  0  0  0  0  0  0  0  0  0  0
   -0.1094    0.5593   -0.9454 C   0  0  2  0  0  0  0  0  0  0  0  0
   -1.4418    1.0127   -0.1949 C   0  0  2  0  0  0  0  0  0  0  0  0
   -4.3248    0.4905    0.6373 C   0  0  1  0  0  0  0  0  0  0  0  0
   -3.2237   -0.5115    1.0782 C   0  0  2  0  0  0  0  0  0  0  0  0
  1 11  1  0
  1 22  1  0
  2  3  1  0
  2 13  1  0
  2 19  2  0
  3 15  2  0
 23  4  1  1
  5  7  1  0
 21  5  1  1
  6 22  1  0
  6 24  1  0
  7 16  1  0
  8 13  1  1
  8 14  1  0
  8 21  1  0
  9 17  1  0
 22 10  1  1
 11 23  1  0
 12 15  1  0
 12 20  2  0
 14 16  1  6
 14 19  1  0
 15 18  1  0
 24 17  1  6
 19 20  1  0
 21 22  1  0
 23 24  1  0
M  END
