
     RDKit          3D

 23 26  0  0  0  0  0  0  0  0999 V2000
    1.1007    2.3167    0.3815 C   0  0  0  0  0  0  0  0  0  0  0  0
    4.8821   -0.2671    2.6572 O   0  0  0  0  0  0  0  0  0  0  0  0
   -2.8673   -0.7967    0.2383 C   0  0  1  0  0  0  0  0  0  0  0  0
   -0.1320    0.1427   -0.3015 C   0  0  2  0  0  0  0  0  0  0  0  0
   -4.3979    2.0017   -0.6499 O   0  0  0  0  0  0  0  0  0  0  0  0
   -4.1581   -0.0616    0.5210 C   0  0  1  0  0  0  0  0  0  0  0  0
    6.1115   -1.6432    1.3700 O   0  0  0  0  0  0  0  0  0  0  0  0
    3.6723   -1.5687    1.1046 C   0  0  0  0  0  0  0  0  0  0  0  0
   -3.7050    0.0548   -1.8975 C   0  0  0  0  0  0  0  0  0  0  0  0
    2.5049   -0.5783    1.2003 C   0  0  0  0  0  0  0  0  0  0  0  0
   -4.5915    0.6181   -0.7765 C   0  0  2  0  0  0  0  0  0  0  0  0
   -0.7533    0.2278    1.1273 C   0  0  0  0  0  0  0  0  0  0  0  0
   -2.4597   -0.5279   -1.2133 C   0  0  1  0  0  0  0  0  0  0  0  0
    4.9188   -1.0226    1.6636 N   0  0  0  0  0  0  0  0  0  0  0  0
    1.1976    1.0259   -0.4821 C   0  0  0  0  0  0  0  0  0  0  0  0
   -1.8057   -0.8564    1.3419 C   0  0  0  0  0  0  0  0  0  0  0  0
    2.5376    0.2263   -0.1149 C   0  0  2  0  0  0  0  0  0  0  0  0
   -4.1449   -1.5909    0.5023 C   0  0  0  0  0  0  0  0  0  0  0  0
    2.9053   -0.8682   -1.1345 C   0  0  0  0  0  0  0  0  0  0  0  0
    1.3507    1.5260   -1.9501 C   0  0  0  0  0  0  0  0  0  0  0  0
    3.6312    1.1246   -0.0903 O   0  0  0  0  0  0  0  0  0  0  0  0
   -1.2732    0.4634   -1.3089 C   0  0  0  0  0  0  0  0  0  0  0  0
    3.8118   -1.8583   -0.3999 C   0  0  0  0  0  0  0  0  0  0  0  0
  1 15  1  0
  2 14  2  0
  3  6  1  0
  3 13  1  0
  3 16  1  1
  3 18  1  0
  4 12  1  0
  4 15  1  1
  4 22  1  0
 11  5  1  1
  6 11  1  0
  6 18  1  6
  7 14  1  0
  8 10  1  0
  8 14  1  0
  8 23  1  0
  9 11  1  0
 13  9  1  6
 10 17  1  0
 12 16  1  0
 13 22  1  0
 15 17  1  0
 15 20  1  0
 17 19  1  0
 17 21  1  1
 19 23  1  0
M  CHG  2   7  -1  14   1
M  END
