
     RDKit          3D

 20 21  0  0  0  0  0  0  0  0999 V2000
   -1.1060    0.4923   -0.6574 O   0  0  0  0  0  0  0  0  0  0  0  0
   -0.5580   -0.3093    1.5795 C   0  0  0  0  0  0  0  0  0  0  0  0
    4.1482   -0.7487   -1.5887 C   0  0  0  0  0  0  0  0  0  0  0  0
    3.1457   -1.2883   -0.6155 C   0  0  0  0  0  0  0  0  0  0  0  0
    5.3760   -0.7674   -1.3060 O   0  0  0  0  0  0  0  0  0  0  0  0
   -3.9770   -0.2300    0.9621 O   0  0  0  0  0  0  0  0  0  0  0  0
   -4.2017    1.8130   -2.0052 O   0  0  0  0  0  0  0  0  0  0  0  0
    1.9132   -0.8007    1.5022 N   0  0  0  0  0  0  0  0  0  0  0  0
   -2.4869    0.7863   -0.6492 C   0  0  2  0  0  0  0  0  0  0  0  0
   -2.1910   -1.5025    0.0122 C   0  0  1  0  0  0  0  0  0  0  0  0
   -2.1202   -2.4179   -1.0567 O   0  0  0  0  0  0  0  0  0  0  0  0
    1.0281    0.5316    3.3387 C   0  0  0  0  0  0  0  0  0  0  0  0
   -0.9080   -0.6728    0.1088 C   0  0  1  0  0  0  0  0  0  0  0  0
   -3.2712   -0.4685   -0.2285 C   0  0  1  0  0  0  0  0  0  0  0  0
   -2.8984    1.2940   -2.0369 C   0  0  0  0  0  0  0  0  0  0  0  0
    3.7188   -0.1902   -2.7885 O   0  0  0  0  0  0  0  0  0  0  0  0
    1.2204    1.4771    1.0148 C   0  0  0  0  0  0  0  0  0  0  0  0
    2.0883    0.9848   -0.1182 C   0  0  0  0  0  0  0  0  0  0  0  0
    0.8954    0.2145    1.8372 C   0  0  2  0  0  0  0  0  0  0  0  0
    2.7858   -0.2420    0.4593 C   0  0  2  0  0  0  0  0  0  0  0  0
  1  9  1  0
  1 13  1  0
 13  2  1  1
  2 19  1  0
  3  4  1  0
  3  5  2  0
  3 16  1  0
 20  4  1  6
 14  6  1  1
  7 15  1  0
  8 19  1  0
  8 20  1  0
  9 14  1  0
  9 15  1  6
 10 11  1  6
 10 13  1  0
 10 14  1  0
 19 12  1  1
 17 18  1  0
 17 19  1  0
 18 20  1  0
M  END
