
     RDKit          3D

 22 23  0  0  0  0  0  0  0  0999 V2000
    1.7642   -0.2877   -0.5768 C   0  0  1  0  0  0  0  0  0  0  0  0
    3.2684   -0.1991   -0.6473 C   0  0  2  0  0  0  0  0  0  0  0  0
    2.7189    1.8689   -2.0161 C   0  0  0  0  0  0  0  0  0  0  0  0
    3.6829    0.6535   -1.8637 C   0  0  1  0  0  0  0  0  0  0  0  0
    0.1713   -1.9684    0.2434 C   0  0  0  0  0  0  0  0  0  0  0  0
   -3.6214    2.6823    1.1611 C   0  0  0  0  0  0  0  0  0  0  0  0
    2.5970   -2.3085    0.2543 C   0  0  1  0  0  0  0  0  0  0  0  0
   -4.7637   -1.4800   -0.2655 C   0  0  0  0  0  0  0  0  0  0  0  0
    3.1501   -2.6854    1.6301 C   0  0  0  0  0  0  0  0  0  0  0  0
   -3.8366    2.2601    2.4810 O   0  0  0  0  0  0  0  0  0  0  0  0
    2.0614    2.2010   -0.7353 N   0  0  0  0  0  0  0  0  0  0  0  0
    1.4927   -1.3306    0.4230 N   0  0  0  0  0  0  0  0  0  0  0  0
   -4.3097   -0.0265   -0.4005 C   0  0  0  0  0  0  0  0  0  0  0  0
   -3.0399    0.2571    0.4341 C   0  0  1  0  0  0  0  0  0  0  0  0
   -1.9235   -0.5536   -0.0664 N   0  0  0  0  0  0  0  0  0  0  0  0
    1.1962    1.1065   -0.2323 C   0  0  0  0  0  0  0  0  0  0  0  0
   -2.3632    2.2120   -0.8687 O   0  0  0  0  0  0  0  0  0  0  0  0
   -0.9355   -0.8518    2.0352 O   0  0  0  0  0  0  0  0  0  0  0  0
    3.6817   -1.6513   -0.6276 C   0  0  0  0  0  0  0  0  0  0  0  0
   -2.6235    1.7531    0.4357 C   0  0  1  0  0  0  0  0  0  0  0  0
   -0.9158   -1.0980    0.7987 C   0  0  0  0  0  0  0  0  0  0  0  0
    5.0178    1.0755   -1.7372 O   0  0  0  0  0  0  0  0  0  0  0  0
  1  2  1  0
  1 12  1  0
  1 16  1  1
  2  4  1  0
  2 19  1  6
  3  4  1  0
  3 11  1  0
  4 22  1  1
  5 12  1  0
  5 21  1  0
  6 10  1  0
  6 20  1  0
  7  9  1  1
  7 12  1  0
  7 19  1  0
  8 13  1  0
 11 16  1  0
 14 13  1  6
 14 15  1  0
 14 20  1  0
 15 21  1  0
 20 17  1  6
 18 21  2  0
M  END
