
     RDKit          3D

 25 27  0  0  0  0  0  0  0  0999 V2000
   23.2024   30.5759  -14.7706 C   0  0  0  0  0  0  0  0  0  0  0  0
   24.8872   31.6454  -13.2382 C   0  0  0  0  0  0  0  0  0  0  0  0
   26.6451   32.5825  -16.6985 C   0  0  0  0  0  0  0  0  0  0  0  0
   20.0302   28.8559  -11.0764 C   0  0  0  0  0  0  0  0  0  0  0  0
   20.0684   28.9395   -8.7087 C   0  0  0  0  0  0  0  0  0  0  0  0
   21.2584   29.7234  -13.5739 N   0  0  0  0  0  0  0  0  0  0  0  0
   26.7109   30.6239  -18.2629 C   0  0  0  0  0  0  0  0  0  0  0  0
   23.6354   30.9739  -13.4489 N   0  0  0  0  0  0  0  0  0  0  0  0
   22.2186   29.4637  -14.6344 C   0  0  0  0  0  0  0  0  0  0  0  0
   27.4115   29.6737  -18.9379 N   0  0  0  0  0  0  0  0  0  0  0  0
   21.9447   29.6357   -9.9520 C   0  0  0  0  0  0  0  0  0  0  0  0
   27.3699   31.4890  -17.4065 C   0  0  0  0  0  0  0  0  0  0  0  0
   29.4115   30.3773  -17.9202 C   0  0  0  0  0  0  0  0  0  0  0  0
   28.7291   29.5715  -18.7816 C   0  0  0  0  0  0  0  0  0  0  0  0
   25.5983   31.7801  -14.4577 C   0  0  0  0  0  0  0  0  0  0  0  0
   26.1275   32.0595  -15.4576 C   0  0  0  0  0  0  0  0  0  0  0  0
   21.3317   29.4125   -8.7418 C   0  0  0  0  0  0  0  0  0  0  0  0
   22.9035   30.8567  -12.3289 C   0  0  0  0  0  0  0  0  0  0  0  0
   22.0163   29.6224  -12.3739 C   0  0  0  0  0  0  0  0  0  0  0  0
   21.3004   29.3453  -11.1202 C   0  0  0  0  0  0  0  0  0  0  0  0
   25.2304   30.6647  -18.5025 C   0  0  0  0  0  0  0  0  0  0  0  0
   28.7313   31.3469  -17.2266 C   0  0  0  0  0  0  0  0  0  0  0  0
   19.4367   28.6346   -9.8678 C   0  0  0  0  0  0  0  0  0  0  0  0
   22.8209   31.7543  -11.5016 O   0  0  0  0  0  0  0  0  0  0  0  0
   20.1842   28.7569  -13.7193 C   0  0  0  0  0  0  0  0  0  0  0  0
  1  8  1  0
  1  9  1  0
  2  8  1  0
  2 15  1  0
  3 12  1  0
  3 16  1  0
  4 20  1  0
  4 23  2  0
  5 17  2  0
  5 23  1  0
  6  9  1  0
  6 19  1  0
  6 25  1  0
  7 10  2  0
  7 12  1  0
  7 21  1  0
  8 18  1  0
 10 14  1  0
 11 17  1  0
 11 20  2  0
 12 22  2  0
 13 14  2  0
 13 22  1  0
 15 16  3  0
 18 19  1  0
 18 24  2  0
 19 20  1  0
M  END
$$$$
