
     RDKit          3D

 27 30  0  0  0  0  0  0  0  0999 V2000
   21.0440   29.9881  -12.9089 N   0  0  0  0  0  0  0  0  0  0  0  0
   21.1291   29.2119   -8.1863 C   0  0  0  0  0  0  0  0  0  0  0  0
   26.4793   31.8003  -17.3077 C   0  0  0  0  0  0  0  0  0  0  0  0
   21.0039   29.8774  -10.4787 C   0  0  0  0  0  0  0  0  0  0  0  0
   24.4737   30.6713  -18.5967 Cl  0  0  0  0  0  0  0  0  0  0  0  0
   19.6851   29.5349  -13.0396 C   0  0  0  0  0  0  0  0  0  0  0  0
   21.7476   29.9568  -14.0303 C   0  0  0  0  0  0  0  0  0  0  0  0
   23.5562   30.7268  -15.2022 N   0  0  0  0  0  0  0  0  0  0  0  0
   26.9879   30.0020  -18.7980 C   0  0  0  0  0  0  0  0  0  0  0  0
   28.7694   31.0884  -17.6100 C   0  0  0  0  0  0  0  0  0  0  0  0
   19.1005   29.1015   -9.3424 C   0  0  0  0  0  0  0  0  0  0  0  0
   18.9114   29.7324  -11.7622 C   0  0  0  0  0  0  0  0  0  0  0  0
   19.6726   29.6050  -10.4860 C   0  0  0  0  0  0  0  0  0  0  0  0
   23.7017   31.5047  -13.7087 C   0  0  0  0  0  0  0  0  0  0  0  0
   19.7854   28.9753   -8.2042 C   0  0  0  0  0  0  0  0  0  0  0  0
   23.8229   32.0524  -12.5205 N   0  0  0  0  0  0  0  0  0  0  0  0
   29.4152   29.0626  -19.2190 Cl  0  0  0  0  0  0  0  0  0  0  0  0
   25.5155   32.7019  -16.7156 C   0  0  0  0  0  0  0  0  0  0  0  0
   21.5932   30.5120  -11.7063 C   0  0  0  0  0  0  0  0  0  0  0  0
   28.3559   30.1409  -18.4719 C   0  0  0  0  0  0  0  0  0  0  0  0
   22.8944   30.6580  -14.2373 N   0  0  0  0  0  0  0  0  0  0  0  0
   24.3468   31.6237  -14.7264 C   0  0  0  0  0  0  0  0  0  0  0  0
   25.4366   32.4296  -15.2295 C   0  0  0  0  0  0  0  0  0  0  0  0
   21.3936   29.1030  -15.1131 O   0  0  0  0  0  0  0  0  0  0  0  0
   27.8357   31.9251  -17.0197 C   0  0  0  0  0  0  0  0  0  0  0  0
   26.0581   30.8478  -18.2068 C   0  0  0  0  0  0  0  0  0  0  0  0
   21.7205   29.6509   -9.3320 C   0  0  0  0  0  0  0  0  0  0  0  0
  1  6  1  0
  1  7  1  0
  1 19  1  0
  2 15  2  0
  2 27  1  0
  3 18  1  0
  3 25  1  0
  3 26  2  0
  4 13  1  0
  4 19  1  0
  4 27  2  0
  5 26  1  0
  6 12  1  0
  7 21  1  0
  7 24  2  0
  8 21  1  0
  8 22  1  0
  9 20  2  0
  9 26  1  0
 10 20  1  0
 10 25  2  0
 11 13  2  0
 11 15  1  0
 12 13  1  0
 14 16  1  0
 14 21  1  0
 14 22  2  0
 17 20  1  0
 18 23  1  0
 22 23  1  0
M  END
$$$$
