
     RDKit          3D

 23 25  0  0  0  0  0  0  0  0999 V2000
   24.7584   32.4456  -14.8393 O   0  0  0  0  0  0  0  0  0  0  0  0
   23.1866   31.2512  -14.2004 C   0  0  0  0  0  0  0  0  0  0  0  0
   20.7367   29.2588  -11.5073 C   0  0  0  0  0  0  0  0  0  0  0  0
   25.1981   31.5800  -17.1148 C   0  0  0  0  0  0  0  0  0  0  0  0
   22.5205   30.9496  -11.8785 C   0  0  0  0  0  0  0  0  0  0  0  0
   26.9159   31.7608  -15.3957 C   0  0  0  0  0  0  0  0  0  0  0  0
   24.3257   31.9255  -13.6818 C   0  0  0  0  0  0  0  0  0  0  0  0
   20.9822   29.7145   -8.7401 C   0  0  0  0  0  0  0  0  0  0  0  0
   26.1367   31.0043  -17.9747 C   0  0  0  0  0  0  0  0  0  0  0  0
   29.4728   29.9273  -17.9118 O   0  0  0  0  0  0  0  0  0  0  0  0
   25.5981   31.9532  -15.8592 C   0  0  0  0  0  0  0  0  0  0  0  0
   27.8352   31.1922  -16.2621 C   0  0  0  0  0  0  0  0  0  0  0  0
   27.4445   30.8291  -17.5414 C   0  0  0  0  0  0  0  0  0  0  0  0
   22.1099   30.9733  -13.2660 N   0  0  0  0  0  0  0  0  0  0  0  0
   20.0759   28.7797   -9.2440 C   0  0  0  0  0  0  0  0  0  0  0  0
   28.3345   30.2334  -18.3704 N   0  0  0  0  0  0  0  0  0  0  0  0
   21.7273   29.6507  -13.6009 C   0  0  0  0  0  0  0  0  0  0  0  0
   21.7602   30.4232   -9.6342 C   0  0  0  0  0  0  0  0  0  0  0  0
   19.3114   28.0979   -8.3644 O   0  0  0  0  0  0  0  0  0  0  0  0
   20.5682   28.9759  -12.9469 C   0  0  0  0  0  0  0  0  0  0  0  0
   19.9399   28.5367  -10.6292 C   0  0  0  0  0  0  0  0  0  0  0  0
   21.6421   30.2135  -11.0095 C   0  0  0  0  0  0  0  0  0  0  0  0
   28.1156   29.9869  -19.6559 O   0  0  0  0  0  0  0  0  0  0  0  0
  1  7  1  0
  1 11  1  0
  2  7  1  0
  2 14  1  0
  3 20  1  0
  3 21  1  0
  3 22  2  0
  4  9  2  0
  4 11  1  0
  5 14  1  0
  5 22  1  0
  6 11  2  0
  6 12  1  0
  8 15  1  0
  8 18  2  0
  9 13  1  0
 10 16  1  0
 12 13  2  0
 13 16  1  0
 14 17  1  0
 15 19  1  0
 15 21  2  0
 16 23  2  0
 17 20  1  0
 18 22  1  0
M  CHG  2  10  -1  16   1
M  END
$$$$
