
     RDKit          3D

 28 31  0  0  0  0  0  0  0  0999 V2000
   27.5584   29.9849  -19.3865 C   0  0  0  0  0  0  0  0  0  0  0  0
   20.0737   29.3639   -9.1767 C   0  0  0  0  0  0  0  0  0  0  0  0
   23.1618   30.8388  -14.4282 C   0  0  0  0  0  0  0  0  0  0  0  0
   25.8938   31.6225  -15.9822 N   0  0  0  0  0  0  0  0  0  0  0  0
   24.6326   30.8228  -14.0997 C   0  0  0  0  0  0  0  0  0  0  0  0
   20.3021   29.4588  -14.3069 O   0  0  0  0  0  0  0  0  0  0  0  0
   23.1421   31.9130  -12.1294 C   0  0  0  0  0  0  0  0  0  0  0  0
   22.3770   32.7330  -11.2398 O   0  0  0  0  0  0  0  0  0  0  0  0
   22.7619   29.4420  -14.6916 C   0  0  0  0  0  0  0  0  0  0  0  0
   29.4387   30.2701  -18.2520 C   0  0  0  0  0  0  0  0  0  0  0  0
   21.8111   30.1612  -12.7365 N   0  0  0  0  0  0  0  0  0  0  0  0
   22.3134   31.3372  -13.2446 C   0  0  0  0  0  0  0  0  0  0  0  0
   19.3286   29.8357  -10.2183 C   0  0  0  0  0  0  0  0  0  0  0  0
   25.2329   32.0689  -14.8776 C   0  0  0  0  0  0  0  0  0  0  0  0
   21.6094   29.2922  -13.7216 C   0  0  0  0  0  0  0  0  0  0  0  0
   19.3808   28.8786   -8.1249 N   0  0  0  0  0  0  0  0  0  0  0  0
   26.8477   30.5669  -18.2724 C   0  0  0  0  0  0  0  0  0  0  0  0
   21.9787   29.3162  -10.5900 C   0  0  0  0  0  0  0  0  0  0  0  0
   28.8259   29.8770  -19.3305 N   0  0  0  0  0  0  0  0  0  0  0  0
   21.3720   29.0388   -9.3825 C   0  0  0  0  0  0  0  0  0  0  0  0
   27.0962   31.5884  -16.0316 C   0  0  0  0  0  0  0  0  0  0  0  0
   25.5158   30.7371  -18.1329 N   0  0  0  0  0  0  0  0  0  0  0  0
   25.2583   31.1771  -16.9489 C   0  0  0  0  0  0  0  0  0  0  0  0
   19.9513   30.1176  -11.3828 C   0  0  0  0  0  0  0  0  0  0  0  0
   29.0084   30.8552  -17.2027 N   0  0  0  0  0  0  0  0  0  0  0  0
   21.2578   29.8910  -11.6090 C   0  0  0  0  0  0  0  0  0  0  0  0
   27.7041   31.0327  -17.1270 C   0  0  0  0  0  0  0  0  0  0  0  0
   22.2684   29.2342  -16.0180 O   0  0  0  0  0  0  0  0  0  0  0  0
  1 17  4  0
  1 19  4  0
  2 13  4  0
  2 16  1  0
  2 20  4  0
  3  5  1  0
  3  9  1  0
  3 12  1  0
  4 14  1  0
  4 21  4  0
  4 23  4  0
  5 14  1  0
  6 15  1  0
  7  8  1  0
  7 12  1  0
  9 15  1  0
  9 28  1  0
 10 19  4  0
 10 25  4  0
 11 12  1  0
 11 15  1  0
 11 26  1  0
 13 24  4  0
 17 22  4  0
 17 27  4  0
 18 20  4  0
 18 26  4  0
 21 27  4  0
 22 23  4  0
 24 26  4  0
 25 27  4  0
M  END
$$$$
