
     RDKit          3D

 34 37  0  0  0  0  0  0  0  0999 V2000
  -19.1805   20.4571  -16.5209 C   0  0  0  0  0  0  0  0  0  0  0  0
  -13.4325   17.6075   -6.9226 C   0  0  0  0  0  0  0  0  0  0  0  0
  -14.4767   21.6179  -17.4041 O   0  0  0  0  0  0  0  0  0  0  0  0
  -13.4143   19.6719   -3.1788 C   0  0  0  0  0  0  0  0  0  0  0  0
  -18.4687   18.2407   -9.7567 C   0  0  0  0  0  0  0  0  0  0  0  0
  -17.9586   19.1517  -10.6514 C   0  0  0  0  0  0  0  0  0  0  0  0
  -15.4370   21.4837  -18.1199 C   0  0  0  0  0  0  0  0  0  0  0  0
  -16.6964   21.1112  -17.6093 C   0  0  0  0  0  0  0  0  0  0  0  0
  -15.8114   20.3068  -12.8802 O   0  0  0  0  0  0  0  0  0  0  0  0
  -18.5056   21.3094  -14.2263 C   0  0  0  0  0  0  0  0  0  0  0  0
  -14.6068   19.7729   -4.0044 C   0  0  0  0  0  0  0  0  0  0  0  0
  -15.7867   19.1338   -6.1673 C   0  0  0  0  0  0  0  0  0  0  0  0
  -12.2928   18.9002   -3.5694 C   0  0  0  0  0  0  0  0  0  0  0  0
  -16.0248   19.6249   -9.4203 C   0  0  0  0  0  0  0  0  0  0  0  0
  -16.8108   19.9066  -10.5122 C   0  0  0  0  0  0  0  0  0  0  0  0
  -12.3150   18.2076   -4.8112 C   0  0  0  0  0  0  0  0  0  0  0  0
  -16.2920   20.9928  -11.6621 S   0  0  0  0  0  0  0  0  0  0  0  0
  -17.7045   20.5393  -18.4214 C   0  0  0  0  0  0  0  0  0  0  0  0
  -15.6013   18.4785   -7.3678 N   0  0  0  0  0  0  0  0  0  0  0  0
  -17.4617   21.9438  -12.1179 N   0  0  0  0  0  0  0  0  0  0  0  0
  -18.0047   17.1405   -7.7146 F   0  0  0  0  0  0  0  0  0  0  0  0
  -14.5802   17.7061   -7.6686 N   0  0  0  0  0  0  0  0  0  0  0  0
  -18.9328   20.2097  -17.8725 C   0  0  0  0  0  0  0  0  0  0  0  0
  -15.3754   21.6924  -19.4622 N   0  0  0  0  0  0  0  0  0  0  0  0
  -12.5335   16.9376   -7.2834 O   0  0  0  0  0  0  0  0  0  0  0  0
  -18.2113   21.0285  -15.6777 C   0  0  0  0  0  0  0  0  0  0  0  0
  -14.6222   19.0783   -5.2573 C   0  0  0  0  0  0  0  0  0  0  0  0
  -15.2386   21.8764  -10.9570 O   0  0  0  0  0  0  0  0  0  0  0  0
  -16.4374   18.7434   -8.4489 C   0  0  0  0  0  0  0  0  0  0  0  0
  -17.6918   18.0201   -8.6675 C   0  0  0  0  0  0  0  0  0  0  0  0
  -13.4681   18.3151   -5.6285 C   0  0  0  0  0  0  0  0  0  0  0  0
  -16.9531   21.3158  -16.2613 C   0  0  0  0  0  0  0  0  0  0  0  0
  -16.9886   19.6825   -5.8193 O   0  0  0  0  0  0  0  0  0  0  0  0
  -17.6589   22.2801  -13.4560 C   0  0  0  0  0  0  0  0  0  0  0  0
  1 23  2  0
  1 26  1  0
  2 22  1  0
  2 25  2  0
  2 31  1  0
  3  7  2  0
  4 11  1  0
  4 13  2  0
  5  6  2  0
  5 30  1  0
  6 15  1  0
  7  8  1  0
  7 24  1  0
  8 18  2  0
  8 32  1  0
  9 17  2  0
 10 26  1  0
 10 34  1  0
 11 27  2  0
 12 19  1  0
 12 27  1  0
 12 33  2  0
 13 16  1  0
 14 15  2  0
 14 29  1  0
 15 17  1  0
 16 31  2  0
 17 20  1  0
 17 28  2  0
 18 23  1  0
 19 22  1  0
 19 29  1  0
 20 34  1  0
 21 30  1  0
 26 32  2  0
 27 31  1  0
 29 30  2  0
M  END
$$$$
