
     RDKit          3D

 32 34  0  0  0  0  0  0  0  0999 V2000
  -12.0624   18.7420   -3.6345 C   0  0  0  0  0  0  0  0  0  0  0  0
  -16.6993   21.0824  -15.8664 C   0  0  0  0  0  0  0  0  0  0  0  0
  -14.8277   20.7535  -14.5029 C   0  0  0  0  0  0  0  0  0  0  0  0
  -18.2731   20.4961  -17.5478 O   0  0  0  0  0  0  0  0  0  0  0  0
  -17.4166   19.1640   -9.6692 C   0  0  0  0  0  0  0  0  0  0  0  0
  -17.4314   17.4786   -7.9913 C   0  0  0  0  0  0  0  0  0  0  0  0
  -18.6152   16.9911   -8.4997 C   0  0  0  0  0  0  0  0  0  0  0  0
  -16.5704   21.6279  -18.2541 N   0  0  0  0  0  0  0  0  0  0  0  0
  -15.5494   21.0905  -13.3934 C   0  0  0  0  0  0  0  0  0  0  0  0
  -14.4548   19.1468   -4.8771 C   0  0  0  0  0  0  0  0  0  0  0  0
  -16.8600   20.2983  -10.3918 C   0  0  0  0  0  0  0  0  0  0  0  0
  -14.2543   19.6803   -3.6233 C   0  0  0  0  0  0  0  0  0  0  0  0
  -13.6374   17.7220   -6.8909 C   0  0  0  0  0  0  0  0  0  0  0  0
  -17.6361   21.8345  -12.3246 C   0  0  0  0  0  0  0  0  0  0  0  0
  -16.9017   21.4542  -13.5062 C   0  0  0  0  0  0  0  0  0  0  0  0
  -18.6123   18.6400  -10.1748 C   0  0  0  0  0  0  0  0  0  0  0  0
  -12.2483   18.1899   -4.8850 C   0  0  0  0  0  0  0  0  0  0  0  0
  -17.2381   21.0396  -17.2709 C   0  0  0  0  0  0  0  0  0  0  0  0
  -16.6197   20.8694  -20.7271 C   0  0  0  0  0  0  0  0  0  0  0  0
  -15.5190   19.0156   -7.9423 C   0  0  0  0  0  0  0  0  0  0  0  0
  -15.8067   20.8244  -10.0894 O   0  0  0  0  0  0  0  0  0  0  0  0
  -15.3742   20.7542  -15.7472 C   0  0  0  0  0  0  0  0  0  0  0  0
  -12.7824   16.9827   -7.3275 O   0  0  0  0  0  0  0  0  0  0  0  0
  -16.8035   18.5682   -8.5707 C   0  0  0  0  0  0  0  0  0  0  0  0
  -17.4629   21.4329  -14.7641 C   0  0  0  0  0  0  0  0  0  0  0  0
  -19.2162   17.5625   -9.5900 C   0  0  0  0  0  0  0  0  0  0  0  0
  -13.4642   18.3710   -5.5416 C   0  0  0  0  0  0  0  0  0  0  0  0
  -15.5803   21.8276  -21.2284 O   0  0  0  0  0  0  0  0  0  0  0  0
  -13.0415   19.4816   -2.9978 C   0  0  0  0  0  0  0  0  0  0  0  0
  -17.5382   20.7897  -11.4188 N   0  0  0  0  0  0  0  0  0  0  0  0
  -17.1870   21.6160  -19.5452 C   0  0  0  0  0  0  0  0  0  0  0  0
  -14.7230   17.8678   -7.6311 N   0  0  0  0  0  0  0  0  0  0  0  0
  1 17  1  0
  1 29  2  0
  2 18  1  0
  2 22  2  0
  2 25  1  0
  3  9  2  0
  3 22  1  0
  4 18  2  0
  5 11  1  0
  5 16  2  0
  5 24  1  0
  6  7  1  0
  6 24  2  0
  7 26  2  0
  8 18  1  0
  8 31  1  0
  9 15  1  0
 10 12  2  0
 10 27  1  0
 11 21  2  0
 11 30  1  0
 12 29  1  0
 13 23  2  0
 13 27  1  0
 13 32  1  0
 14 15  1  0
 14 30  1  0
 15 25  2  0
 16 26  1  0
 17 27  2  0
 19 28  1  0
 19 31  1  0
 20 24  1  0
 20 32  1  0
M  END
$$$$
