
     RDKit          3D

 29 32  0  0  0  0  0  0  0  0999 V2000
  -12.9371   19.0927   -3.6573 C   0  0  0  0  0  0  0  0  0  0  0  0
  -15.8721   21.4420  -18.5844 C   0  0  0  0  0  0  0  0  0  0  0  0
  -13.4426   17.7624   -7.1230 C   0  0  0  0  0  0  0  0  0  0  0  0
  -19.0920   17.8584   -8.7111 C   0  0  0  0  0  0  0  0  0  0  0  0
  -18.0812   17.9881   -7.8078 C   0  0  0  0  0  0  0  0  0  0  0  0
  -14.2717   19.7481   -3.5199 C   0  0  0  0  0  0  0  0  0  0  0  0
  -15.8001   19.9840  -14.2161 C   0  0  0  0  0  0  0  0  0  0  0  0
  -17.7853   21.6629  -14.0038 C   0  0  0  0  0  0  0  0  0  0  0  0
  -16.8656   21.0555  -16.2261 C   0  0  0  0  0  0  0  0  0  0  0  0
  -16.8564   18.6037   -8.1236 C   0  0  0  0  0  0  0  0  0  0  0  0
  -15.8682   20.9875  -11.3326 O   0  0  0  0  0  0  0  0  0  0  0  0
  -12.4820   17.0557   -7.5910 O   0  0  0  0  0  0  0  0  0  0  0  0
  -14.8873   18.8853   -5.8011 C   0  0  0  0  0  0  0  0  0  0  0  0
  -17.5888   19.5128  -11.6122 N   0  0  0  0  0  0  0  0  0  0  0  0
  -15.8894   20.1747  -15.6654 C   0  0  0  0  0  0  0  0  0  0  0  0
  -17.7736   19.0915  -10.3266 C   0  0  0  0  0  0  0  0  0  0  0  0
  -14.5277   18.0646   -7.9102 N   0  0  0  0  0  0  0  0  0  0  0  0
  -14.7215   21.5909  -18.2198 O   0  0  0  0  0  0  0  0  0  0  0  0
  -12.6248   18.3735   -4.8037 C   0  0  0  0  0  0  0  0  0  0  0  0
  -18.8934   18.4187   -9.9619 C   0  0  0  0  0  0  0  0  0  0  0  0
  -16.7166   20.4668  -12.0639 C   0  0  0  0  0  0  0  0  0  0  0  0
  -16.7380   20.7256  -13.4824 C   0  0  0  0  0  0  0  0  0  0  0  0
  -17.8005   21.7911  -15.4177 C   0  0  0  0  0  0  0  0  0  0  0  0
  -15.2298   19.6558   -4.5783 C   0  0  0  0  0  0  0  0  0  0  0  0
  -16.7420   19.1691   -9.4033 C   0  0  0  0  0  0  0  0  0  0  0  0
  -13.6443   18.2506   -5.8701 C   0  0  0  0  0  0  0  0  0  0  0  0
  -15.6751   18.6321   -7.0954 C   0  0  0  0  0  0  0  0  0  0  0  0
  -16.9854   21.2042  -17.6355 N   0  0  0  0  0  0  0  0  0  0  0  0
  -16.1627   21.5376  -19.8650 N   0  0  0  0  0  0  0  0  0  0  0  0
  1  6  2  0
  1 19  1  0
  2 18  2  0
  2 28  1  0
  2 29  1  0
  3 12  2  0
  3 17  1  0
  3 26  1  0
  4  5  1  0
  4 20  2  0
  5 10  2  0
  6 24  1  0
  7 15  2  0
  7 22  1  0
  8 22  2  0
  8 23  1  0
  9 15  1  0
  9 23  2  0
  9 28  1  0
 10 25  1  0
 10 27  1  0
 11 21  2  0
 13 24  2  0
 13 26  1  0
 13 27  1  0
 14 16  1  0
 14 21  1  0
 16 20  1  0
 16 25  2  0
 17 27  1  0
 19 26  2  0
 21 22  1  0
M  END
$$$$
