
     RDKit          3D

 31 33  0  0  0  0  0  0  0  0999 V2000
  -16.2493   21.7656  -13.8078 C   0  0  0  0  0  0  0  0  0  0  0  0
  -19.1510   18.0043   -9.5075 C   0  0  0  0  0  0  0  0  0  0  0  0
  -17.0627   21.2037  -14.9506 C   0  0  0  0  0  0  0  0  0  0  0  0
  -17.2283   19.1798   -9.8150 C   0  0  0  0  0  0  0  0  0  0  0  0
  -13.0720   17.2536   -7.9893 O   0  0  0  0  0  0  0  0  0  0  0  0
  -16.6263   21.5456  -20.7929 C   0  0  0  0  0  0  0  0  0  0  0  0
  -18.5309   18.9607  -10.2816 C   0  0  0  0  0  0  0  0  0  0  0  0
  -13.0560   18.7783   -4.1820 C   0  0  0  0  0  0  0  0  0  0  0  0
  -16.9011   20.3943  -17.2107 N   0  0  0  0  0  0  0  0  0  0  0  0
  -16.1382   19.6272   -5.9350 C   0  0  0  0  0  0  0  0  0  0  0  0
  -15.3492   19.6859   -4.7358 N   0  0  0  0  0  0  0  0  0  0  0  0
  -14.1787   18.4641   -6.2538 C   0  0  0  0  0  0  0  0  0  0  0  0
  -16.1880   22.1796  -21.6146 N   0  0  0  0  0  0  0  0  0  0  0  0
  -16.3440   20.2914  -11.8826 N   0  0  0  0  0  0  0  0  0  0  0  0
  -11.9781   18.0613   -4.6788 C   0  0  0  0  0  0  0  0  0  0  0  0
  -16.3769   21.0741  -18.3450 C   0  0  0  0  0  0  0  0  0  0  0  0
  -16.1412   20.6066  -16.0164 C   0  0  0  0  0  0  0  0  0  0  0  0
  -15.4467   18.7753   -6.8804 C   0  0  0  0  0  0  0  0  0  0  0  0
  -18.2024   17.4761   -8.2864 S   0  0  0  0  0  0  0  0  0  0  0  0
  -16.2371   20.1356  -10.4630 C   0  0  0  0  0  0  0  0  0  0  0  0
  -17.6582   22.1614  -12.0077 O   0  0  0  0  0  0  0  0  0  0  0  0
  -13.1035   17.6882   -6.8459 C   0  0  0  0  0  0  0  0  0  0  0  0
  -16.9157   18.4190   -8.7315 C   0  0  0  0  0  0  0  0  0  0  0  0
  -15.3447   20.6903   -9.8228 O   0  0  0  0  0  0  0  0  0  0  0  0
  -16.9496   20.7702  -19.6643 C   0  0  0  0  0  0  0  0  0  0  0  0
  -16.8262   21.4385  -12.4831 C   0  0  0  0  0  0  0  0  0  0  0  0
  -15.4838   21.9021  -18.2438 O   0  0  0  0  0  0  0  0  0  0  0  0
  -15.6718   18.3646   -8.0802 N   0  0  0  0  0  0  0  0  0  0  0  0
  -14.1939   18.9828   -5.0057 C   0  0  0  0  0  0  0  0  0  0  0  0
  -12.9950   19.3925   -2.5546 Cl  0  0  0  0  0  0  0  0  0  0  0  0
  -11.9668   17.5248   -5.9443 C   0  0  0  0  0  0  0  0  0  0  0  0
  1  3  1  0
  1 26  1  0
  2  7  2  0
  2 19  1  0
  3 17  1  0
  4  7  1  0
  4 20  1  0
  4 23  2  0
  5 22  2  0
  6 13  3  0
  6 25  1  0
  8 15  1  0
  8 29  1  0
  8 30  1  0
  9 16  1  0
  9 17  1  0
 10 11  1  0
 10 18  1  0
 11 29  2  0
 12 18  2  0
 12 22  1  0
 12 29  1  0
 14 20  1  0
 14 26  1  0
 15 31  2  0
 16 25  1  0
 16 27  2  0
 18 28  1  0
 19 23  1  0
 20 24  2  0
 21 26  2  0
 22 31  1  0
 23 28  1  0
M  END
$$$$
