
     RDKit          3D

 29 31  0  0  0  0  0  0  0  0999 V2000
  -17.3246   20.7873  -17.1308 C   0  0  0  0  0  0  0  0  0  0  0  0
  -13.1522   19.5581   -3.0350 C   0  0  0  0  0  0  0  0  0  0  0  0
  -13.5335   17.7972   -6.8398 C   0  0  0  0  0  0  0  0  0  0  0  0
  -12.0372   18.8304   -3.4872 C   0  0  0  0  0  0  0  0  0  0  0  0
  -16.1435   18.7591   -9.0573 C   0  0  0  0  0  0  0  0  0  0  0  0
  -14.3271   19.6922   -3.8042 C   0  0  0  0  0  0  0  0  0  0  0  0
  -15.5088   19.0599   -6.0661 C   0  0  0  0  0  0  0  0  0  0  0  0
  -16.0209   20.7862  -19.2600 C   0  0  0  0  0  0  0  0  0  0  0  0
  -15.8816   20.2703  -20.5337 N   0  0  0  0  0  0  0  0  0  0  0  0
  -18.2660   19.2655  -10.1621 C   0  0  0  0  0  0  0  0  0  0  0  0
  -16.9635   20.8648  -14.8047 C   0  0  0  0  0  0  0  0  0  0  0  0
  -17.6981   20.3087  -10.8335 N   0  0  0  0  0  0  0  0  0  0  0  0
  -15.4422   17.8919   -8.2990 N   0  0  0  0  0  0  0  0  0  0  0  0
  -15.3213   21.7882  -18.8940 N   0  0  0  0  0  0  0  0  0  0  0  0
  -17.4758   21.3136  -13.8576 C   0  0  0  0  0  0  0  0  0  0  0  0
  -18.0514   22.0320  -12.7515 C   0  0  0  0  0  0  0  0  0  0  0  0
  -16.3632   20.6402  -10.5704 C   0  0  0  0  0  0  0  0  0  0  0  0
  -17.5671   18.4455   -9.2775 C   0  0  0  0  0  0  0  0  0  0  0  0
  -12.0669   18.1991   -4.7447 C   0  0  0  0  0  0  0  0  0  0  0  0
  -16.9487   20.1618  -18.3864 N   0  0  0  0  0  0  0  0  0  0  0  0
  -14.3693   19.0644   -5.0413 C   0  0  0  0  0  0  0  0  0  0  0  0
  -18.2430   17.2518   -8.5927 C   0  0  0  0  0  0  0  0  0  0  0  0
  -14.7757   18.2071   -7.1738 C   0  0  0  0  0  0  0  0  0  0  0  0
  -13.2021   18.2960   -5.5490 C   0  0  0  0  0  0  0  0  0  0  0  0
  -16.3967   20.3988  -16.0415 C   0  0  0  0  0  0  0  0  0  0  0  0
  -15.7516   21.6487  -11.0588 O   0  0  0  0  0  0  0  0  0  0  0  0
  -12.6492   17.0458   -7.5939 O   0  0  0  0  0  0  0  0  0  0  0  0
  -15.5838   19.9145   -9.6947 C   0  0  0  0  0  0  0  0  0  0  0  0
  -18.6134   21.0729  -11.6902 C   0  0  0  0  0  0  0  0  0  0  0  0
  1 20  1  0
  1 25  1  0
  2  4  4  0
  2  6  4  0
  3 23  4  0
  3 24  4  0
  3 27  1  0
  4 19  4  0
  5 13  1  0
  5 18  4  0
  5 28  4  0
  6 21  4  0
  7 21  4  0
  7 23  4  0
  8  9  1  0
  8 14  1  0
  8 20  2  3
 10 12  4  0
 10 18  4  0
 11 15  3  0
 11 25  1  0
 12 17  4  0
 12 29  1  0
 13 23  1  0
 15 16  1  0
 16 29  1  0
 17 26  2  0
 17 28  4  0
 18 22  1  0
 19 24  4  0
 21 24  4  0
M  END
$$$$
