
     RDKit          3D

 23 25  0  0  0  0  0  0  0  0999 V2000
   20.1524   53.0923   21.4716 C   0  0  0  0  0  0  0  0  0  0  0  0
   18.5236   52.2146   20.0091 C   0  0  0  0  0  0  0  0  0  0  0  0
   20.5479   51.0149   20.0919 C   0  0  0  0  0  0  0  0  0  0  0  0
   22.1188   48.9982   19.5430 C   0  0  0  0  0  0  0  0  0  0  0  0
   23.2199   49.0848   18.7039 C   0  0  0  0  0  0  0  0  0  0  0  0
   24.0780   48.0148   18.5089 C   0  0  0  0  0  0  0  0  0  0  0  0
   22.7615   46.7683   19.9881 C   0  0  0  0  0  0  0  0  0  0  0  0
   17.8159   55.1267   23.9975 C   0  0  0  0  0  0  0  0  0  0  0  0
   17.7023   53.2723   20.4500 C   0  0  0  0  0  0  0  0  0  0  0  0
   19.3409   54.0989   21.8800 C   0  0  0  0  0  0  0  0  0  0  0  0
   23.8636   46.8142   19.1487 C   0  0  0  0  0  0  0  0  0  0  0  0
   16.2689   56.7399   23.1782 C   0  0  0  0  0  0  0  0  0  0  0  0
   17.6799   55.6491   25.2883 C   0  0  0  0  0  0  0  0  0  0  0  0
   16.6046   57.3808   27.2111 Cl  0  0  0  0  0  0  0  0  0  0  0  0
   17.1345   55.1457   21.7153 N   0  0  0  0  0  0  0  0  0  0  0  0
   24.7786   45.6378   18.9409 C   0  0  0  0  0  0  0  0  0  0  0  0
   21.2432   50.0886   19.7761 C   0  0  0  0  0  0  0  0  0  0  0  0
   16.8492   56.7223   25.5688 C   0  0  0  0  0  0  0  0  0  0  0  0
   19.7255   52.1700   20.5496 C   0  0  0  0  0  0  0  0  0  0  0  0
   18.0784   54.1940   21.3705 C   0  0  0  0  0  0  0  0  0  0  0  0
   17.1226   55.6653   23.0075 C   0  0  0  0  0  0  0  0  0  0  0  0
   21.8869   47.8203   20.2006 C   0  0  0  0  0  0  0  0  0  0  0  0
   16.1264   57.2720   24.5297 C   0  0  0  0  0  0  0  0  0  0  0  0
  1 10  2  0
  1 19  1  0
  2  9  1  0
  2 19  2  0
  3 17  3  0
  3 19  1  0
  4  5  1  0
  4 17  1  0
  4 22  2  0
  5  6  2  0
  6 11  1  0
  7 11  2  0
  7 22  1  0
  8 13  2  0
  8 21  1  0
  9 20  2  0
 10 20  1  0
 11 16  1  0
 12 21  2  0
 12 23  1  0
 13 18  1  0
 14 18  1  0
 15 20  1  0
 15 21  1  0
 18 23  2  0
M  END
$$$$
