
     RDKit          3D

 35 40  0  0  0  0  0  0  0  0999 V2000
   16.0561   57.2199   25.1119 C   0  0  0  0  0  0  0  0  0  0  0  0
   23.8771   46.9104   18.7861 C   0  0  0  0  0  0  0  0  0  0  0  0
   19.4826   53.7039   20.3179 C   0  0  0  0  0  0  0  0  0  0  0  0
   17.0758   57.9193   27.0000 C   0  0  0  0  0  0  0  0  0  0  0  0
   20.9981   48.3325   17.3900 C   0  0  0  0  0  0  0  0  0  0  0  0
   15.9810   58.2352   26.0865 C   0  0  0  0  0  0  0  0  0  0  0  0
   19.6553   55.9144   22.9349 C   0  0  0  0  0  0  0  0  0  0  0  0
   25.0169   47.5329   18.5478 F   0  0  0  0  0  0  0  0  0  0  0  0
   21.0446   50.7429   20.0375 C   0  0  0  0  0  0  0  0  0  0  0  0
   19.1785   51.0827   18.5988 C   0  0  0  0  0  0  0  0  0  0  0  0
   22.5599   49.0252   19.4282 C   0  0  0  0  0  0  0  0  0  0  0  0
   19.7372   52.2681   20.6904 C   0  0  0  0  0  0  0  0  0  0  0  0
   20.2847   55.1606   21.9691 C   0  0  0  0  0  0  0  0  0  0  0  0
   17.3880   57.1024   24.5788 N   0  0  0  0  0  0  0  0  0  0  0  0
   22.7613   47.9203   18.6344 C   0  0  0  0  0  0  0  0  0  0  0  0
   19.6456   50.0785   17.9192 N   0  0  0  0  0  0  0  0  0  0  0  0
   18.3831   57.9200   26.2761 C   0  0  0  0  0  0  0  0  0  0  0  0
   18.1995   52.3252   21.1646 C   0  0  0  0  0  0  0  0  0  0  0  0
   23.8802   46.0489   17.6744 F   0  0  0  0  0  0  0  0  0  0  0  0
   19.3156   54.6316   21.3304 N   0  0  0  0  0  0  0  0  0  0  0  0
   19.9254   51.4570   19.7501 C   0  0  0  0  0  0  0  0  0  0  0  0
   23.2994   49.4867   20.3828 F   0  0  0  0  0  0  0  0  0  0  0  0
   16.8143   54.7534   21.4115 C   0  0  0  0  0  0  0  0  0  0  0  0
   21.5348   51.2037   21.0762 N   0  0  0  0  0  0  0  0  0  0  0  0
   18.2832   55.8239   22.8303 C   0  0  0  0  0  0  0  0  0  0  0  0
   22.0196   47.6265   17.6462 N   0  0  0  0  0  0  0  0  0  0  0  0
   20.7633   49.3249   18.1736 C   0  0  0  0  0  0  0  0  0  0  0  0
   16.0138   56.1125   23.1500 N   0  0  0  0  0  0  0  0  0  0  0  0
   20.5239   52.0763   21.8473 C   0  0  0  0  0  0  0  0  0  0  0  0
   23.5989   46.1089   20.0392 F   0  0  0  0  0  0  0  0  0  0  0  0
   18.0718   54.9888   21.8014 C   0  0  0  0  0  0  0  0  0  0  0  0
   21.4483   49.7310   19.2250 C   0  0  0  0  0  0  0  0  0  0  0  0
   18.5011   56.8041   25.4228 C   0  0  0  0  0  0  0  0  0  0  0  0
   17.2495   56.3587   23.5305 C   0  0  0  0  0  0  0  0  0  0  0  0
   15.9248   55.3543   22.1446 C   0  0  0  0  0  0  0  0  0  0  0  0
  1  6  1  0
  1 14  1  0
  2  8  1  0
  2 15  1  0
  2 19  1  0
  2 30  1  0
  3 12  1  0
  3 20  1  0
  4  6  1  0
  4 17  1  0
  5 26  4  0
  5 27  4  0
  7 13  4  0
  7 25  4  0
  9 21  4  0
  9 24  2  0
  9 32  4  0
 10 16  4  0
 10 21  4  0
 11 15  4  0
 11 22  1  0
 11 32  4  0
 12 18  1  0
 12 21  1  0
 12 29  1  0
 13 20  4  0
 14 33  1  0
 14 34  1  0
 15 26  4  0
 16 27  4  0
 17 33  1  0
 20 31  4  0
 23 31  4  0
 23 35  4  0
 24 29  1  0
 25 31  4  0
 25 34  4  0
 27 32  4  0
 28 34  4  0
 28 35  4  0
M  END
$$$$
