
     RDKit          3D

 29 31  0  0  0  0  0  0  0  0999 V2000
    4.4550   -0.7628   -1.1273 C   0  0  0  0  0  0  0  0  0  0  0  0
   -5.7219    0.4263   -1.3595 N   0  0  0  0  0  0  0  0  0  0  0  0
   -5.0009    0.6170    0.9159 C   0  0  0  0  0  0  0  0  0  0  0  0
   -4.4802    0.6167    3.2265 O   0  0  0  0  0  0  0  0  0  0  0  0
   -0.9552   -0.6127   -0.8142 C   0  0  0  0  0  0  0  0  0  0  0  0
   -5.4270   -0.1622   -0.1695 C   0  0  0  0  0  0  0  0  0  0  0  0
   -5.2606    2.5908   -0.4667 C   0  0  0  0  0  0  0  0  0  0  0  0
   -1.6057   -2.6074   -2.0296 C   0  0  0  0  0  0  0  0  0  0  0  0
    6.1064    0.7828   -0.1021 N   0  0  0  0  0  0  0  0  0  0  0  0
   -2.6607   -2.8124   -1.1380 C   0  0  0  0  0  0  0  0  0  0  0  0
   -5.6421    1.7723   -1.5309 C   0  0  0  0  0  0  0  0  0  0  0  0
    3.4883    0.1270   -1.9309 C   0  0  0  0  0  0  0  0  0  0  0  0
   -4.9363    2.0101    0.7606 C   0  0  0  0  0  0  0  0  0  0  0  0
   -2.0031   -0.8323    0.0938 C   0  0  0  0  0  0  0  0  0  0  0  0
   -3.3588   -1.9432    3.3036 C   0  0  0  0  0  0  0  0  0  0  0  0
   -2.8735   -1.9307   -0.0640 C   0  0  0  0  0  0  0  0  0  0  0  0
    1.1052    0.1232    0.2247 N   0  0  0  0  0  0  0  0  0  0  0  0
   -4.5057   -0.0347    2.1460 C   0  0  0  0  0  0  0  0  0  0  0  0
   -3.9971   -1.3876    2.1065 N   0  0  0  0  0  0  0  0  0  0  0  0
    2.3197    1.3946    0.2672 S   0  0  0  0  0  0  0  0  0  0  0  0
    1.5511    2.8764    0.6088 O   0  0  0  0  0  0  0  0  0  0  0  0
   -4.0470   -2.1884    0.8671 C   0  0  1  0  0  0  0  0  0  0  0  0
    3.3928    1.0523    1.5439 O   0  0  0  0  0  0  0  0  0  0  0  0
   -0.0146    0.5430   -0.6178 C   0  0  0  0  0  0  0  0  0  0  0  0
   -0.7525   -1.5154   -1.8676 C   0  0  0  0  0  0  0  0  0  0  0  0
   -5.6429   -1.9320    0.0115 S   0  0  0  0  0  0  0  0  0  0  0  0
    5.9069   -0.2532   -1.1268 C   0  0  0  0  0  0  0  0  0  0  0  0
    6.5282    0.1995    1.1745 C   0  0  0  0  0  0  0  0  0  0  0  0
    3.2095    1.5028   -1.3078 C   0  0  0  0  0  0  0  0  0  0  0  0
  1 12  1  0
  1 27  1  0
  2  6  2  0
  2 11  1  0
  3  6  1  0
  3 13  2  0
  3 18  1  0
  4 18  2  0
  5 14  2  0
  5 24  1  0
  5 25  1  0
  6 26  1  0
  7 11  2  0
  7 13  1  0
  8 10  1  0
  8 25  2  0
  9 27  1  0
  9 28  1  0
 10 16  2  0
 12 29  1  0
 14 16  1  0
 15 19  1  0
 22 16  1  6
 17 20  1  0
 17 24  1  0
 18 19  1  0
 19 22  1  0
 20 21  1  0
 20 23  1  0
 20 29  1  0
 22 26  1  0
M  END
