
     RDKit          3D

 29 31  0  0  0  0  0  0  0  0999 V2000
   -5.7756   -1.1260   -0.4790 C   0  0  0  0  0  0  0  0  0  0  0  0
    4.8451   -1.3436    1.3282 C   0  0  0  0  0  0  0  0  0  0  0  0
    1.2920    0.9185    2.7351 O   0  0  0  0  0  0  0  0  0  0  0  0
    7.5962   -2.5342    1.1819 N   0  0  0  0  0  0  0  0  0  0  0  0
    5.7728    0.6890    0.3917 C   0  0  0  0  0  0  0  0  0  0  0  0
   -1.4185   -1.2696   -1.3597 C   0  0  0  0  0  0  0  0  0  0  0  0
    0.9495    1.3219    0.1158 C   0  0  0  0  0  0  0  0  0  0  0  0
    4.5685    1.3530    0.6416 C   0  0  0  0  0  0  0  0  0  0  0  0
   -2.8387   -1.0024   -1.1388 N   0  0  0  0  0  0  0  0  0  0  0  0
   -2.5947   -0.5966    1.1475 O   0  0  0  0  0  0  0  0  0  0  0  0
    1.9770    1.5044    1.5317 S   0  0  0  0  0  0  0  0  0  0  0  0
    3.6415   -0.6768    1.5760 C   0  0  0  0  0  0  0  0  0  0  0  0
    0.8870    2.3243   -0.8544 C   0  0  0  0  0  0  0  0  0  0  0  0
   -3.3750   -0.7089    0.1626 C   0  0  0  0  0  0  0  0  0  0  0  0
    7.9939   -0.8960   -0.4092 O   0  0  0  0  0  0  0  0  0  0  0  0
   -4.8306   -0.5157    0.3681 C   0  0  0  0  0  0  0  0  0  0  0  0
   -0.6431    1.0415   -2.1550 C   0  0  0  0  0  0  0  0  0  0  0  0
    5.9296   -0.6647    0.7420 C   0  0  0  0  0  0  0  0  0  0  0  0
   -5.2887    0.2717    1.4412 C   0  0  0  0  0  0  0  0  0  0  0  0
   -7.1445   -0.9349   -0.2657 C   0  0  0  0  0  0  0  0  0  0  0  0
    2.2315    2.9614    1.8024 O   0  0  0  0  0  0  0  0  0  0  0  0
   -0.6046   -0.0052   -1.2030 C   0  0  0  0  0  0  0  0  0  0  0  0
    0.2056    0.1536   -0.0675 C   0  0  0  0  0  0  0  0  0  0  0  0
   -1.4907    0.9660   -3.3912 C   0  0  0  0  0  0  0  0  0  0  0  0
    7.2122   -1.3572    0.4658 C   0  0  0  0  0  0  0  0  0  0  0  0
   -6.6585    0.4599    1.6489 C   0  0  0  0  0  0  0  0  0  0  0  0
   -7.5856   -0.1407    0.7948 C   0  0  0  0  0  0  0  0  0  0  0  0
    0.1003    2.1635   -1.9491 N   0  0  0  0  0  0  0  0  0  0  0  0
    3.5018    0.6757    1.2436 C   0  0  0  0  0  0  0  0  0  0  0  0
  1 16  2  0
  1 20  1  0
  2 12  2  0
  2 18  1  0
  3 11  2  0
  4 25  1  0
  5  8  1  0
  5 18  2  0
  6  9  1  0
  6 22  1  0
  7 11  1  0
  7 13  1  0
  7 23  2  0
  8 29  2  0
  9 14  1  0
 10 14  2  0
 11 21  2  0
 11 29  1  0
 12 29  1  0
 13 28  2  0
 14 16  1  0
 15 25  2  0
 16 19  1  0
 17 22  2  0
 17 24  1  0
 17 28  1  0
 18 25  1  0
 19 26  2  0
 20 27  2  0
 22 23  1  0
 26 27  1  0
M  END
