
     RDKit          3D

 14 13  0  0  0  0  0  0  0  0999 V2000
   -5.0992  -16.2483  -10.5842 C   0  0  0  0  0  0  0  0  0  0  0  0
   -0.8902  -18.2223  -15.3660 C   0  0  2  0  0  0  0  0  0  0  0  0
   -7.4384  -15.5958   -8.7763 C   0  0  0  0  0  0  0  0  0  0  0  0
   -1.1376  -16.7294  -15.5557 C   0  0  0  0  0  0  0  0  0  0  0  0
   -4.0982  -15.5612  -12.5975 O   0  0  0  0  0  0  0  0  0  0  0  0
   -1.7450  -18.3249  -12.8865 C   0  0  0  0  0  0  0  0  0  0  0  0
   -4.9340  -16.0364   -9.2672 C   0  0  0  0  0  0  0  0  0  0  0  0
   -1.9970  -18.9901  -15.9426 N   0  0  0  0  0  0  0  0  0  0  0  0
   -4.0423  -16.5828  -11.6048 C   0  0  1  0  0  0  0  0  0  0  0  0
   -8.4104  -15.2592   -7.6550 C   0  0  0  0  0  0  0  0  0  0  0  0
   -1.5571  -16.9764  -12.1837 C   0  0  0  0  0  0  0  0  0  0  0  0
   -2.6007  -16.7099  -11.0882 C   0  0  0  0  0  0  0  0  0  0  0  0
   -0.6349  -18.6343  -13.9030 C   0  0  0  0  0  0  0  0  0  0  0  0
   -6.0028  -15.7073   -8.2553 C   0  0  0  0  0  0  0  0  0  0  0  0
  1  7  2  3
  1  9  1  0
  2  4  1  6
  2  8  1  0
  2 13  1  0
  3 10  1  0
  3 14  1  0
  9  5  1  6
  6 11  1  0
  6 13  1  0
  7 14  1  0
  9 12  1  0
 11 12  1  0
M  END
$$$$
