
     RDKit          3D

 16 17  0  0  0  0  0  0  0  0999 V2000
  -16.5736   16.9047  -25.2490 N   0  0  0  0  0  0  0  0  0  0  0  0
  -19.7898   17.7652  -27.0875 N   0  0  0  0  0  0  0  0  0  0  0  0
  -23.7477   17.1546  -29.4891 C   0  0  0  0  0  0  0  0  0  0  0  0
  -23.3114   17.6698  -28.2647 C   0  0  0  0  0  0  0  0  0  0  0  0
  -17.0280   16.5821  -27.4520 O   0  0  0  0  0  0  0  0  0  0  0  0
  -21.4988   16.3808  -30.0015 C   0  0  0  0  0  0  0  0  0  0  0  0
  -24.4263   18.4612  -27.2249 Cl  0  0  0  0  0  0  0  0  0  0  0  0
  -20.4065   15.5818  -31.0613 Cl  0  0  0  0  0  0  0  0  0  0  0  0
  -21.0736   16.9205  -28.7993 C   0  0  0  0  0  0  0  0  0  0  0  0
  -18.9399   17.2006  -26.0272 C   0  0  0  0  0  0  0  0  0  0  0  0
  -22.8454   16.5083  -30.3535 C   0  0  0  0  0  0  0  0  0  0  0  0
  -21.9782   17.5357  -27.9299 C   0  0  0  0  0  0  0  0  0  0  0  0
  -17.4213   17.3515  -26.3377 C   0  0  1  0  0  0  0  0  0  0  0  0
  -21.2204   17.9503  -26.7083 C   0  0  1  0  0  0  0  0  0  0  0  0
  -21.6398   17.1344  -25.6275 O   0  0  0  0  0  0  0  0  0  0  0  0
  -19.8081   16.8516  -28.1982 N   0  0  0  0  0  0  0  0  0  0  0  0
 13  1  1  1
  2 10  1  0
  2 14  1  0
  2 16  1  0
  3  4  1  0
  3 11  2  0
  4  7  1  0
  4 12  2  0
  5 13  1  0
  6  8  1  0
  6  9  2  0
  6 11  1  0
  9 12  1  0
  9 16  1  0
 10 13  1  0
 12 14  1  0
 14 15  1  1
M  END
$$$$
