
     RDKit          3D

  9  8  0  0  0  0  0  0  0  0999 V2000
  -13.8936   -4.6186    4.1807 O   0  0  0  0  0  0  0  0  0  0  0  0
  -16.6959   -5.6918    4.2986 C   0  0  0  0  0  0  0  0  0  0  0  0
  -18.7010   -7.0693    4.3801 C   0  0  0  0  0  0  0  0  0  0  0  0
  -17.6405   -6.2992    3.5453 C   0  0  0  0  0  0  0  0  0  0  0  0
  -13.5001   -6.2247    3.0515 N   0  0  0  0  0  0  0  0  0  0  0  0
  -15.6207   -6.4353    4.5177 C   0  0  0  0  0  0  0  0  0  0  0  0
  -19.4610   -6.5018    5.5684 C   0  0  0  0  0  0  0  0  0  0  0  0
  -14.3623   -5.7285    3.9410 C   0  0  0  0  0  0  0  0  0  0  0  0
  -12.4925   -6.9877    3.7609 N   0  0  0  0  0  0  0  0  0  0  0  0
  1  8  2  0
  2  4  1  0
  2  6  1  0
  3  4  1  0
  3  7  1  0
  5  8  1  0
  5  9  1  0
  6  8  1  0
M  END
$$$$
