
     RDKit          3D

 21 21  0  0  0  0  0  0  0  0999 V2000
   -2.1940   -0.2151   -1.1463 C   0  0  0  0  0  0  0  0  0  0  0  0
    3.6099   -0.0909    0.6918 N   0  0  0  0  0  0  0  0  0  0  0  0
   -1.0006   -0.6617    1.4157 O   0  0  0  0  0  0  0  0  0  0  0  0
   -6.0670   -0.1387    0.7448 C   0  0  0  0  0  0  0  0  0  0  0  0
    0.1604    1.4204    1.4964 C   0  0  0  0  0  0  0  0  0  0  0  0
    1.5386    1.3026    0.9238 C   0  0  0  0  0  0  0  0  0  0  0  0
    7.4413   -1.0528   -0.8394 C   0  0  0  0  0  0  0  0  0  0  0  0
   -4.3799    0.9264   -0.6303 C   0  0  0  0  0  0  0  0  0  0  0  0
   -3.5513   -0.1999   -0.4976 C   0  0  0  0  0  0  0  0  0  0  0  0
   -6.6650    2.3651   -0.1831 Cl  0  0  0  0  0  0  0  0  0  0  0  0
    6.1527   -0.7199   -0.3372 O   0  0  0  0  0  0  0  0  0  0  0  0
    1.9396    2.1625    0.0937 O   0  0  0  0  0  0  0  0  0  0  0  0
   -0.7495    0.4310    0.8386 C   0  0  0  0  0  0  0  0  0  0  0  0
   -3.9905   -1.2922    0.2688 C   0  0  0  0  0  0  0  0  0  0  0  0
    3.8017    0.0239   -0.5865 C   0  0  0  0  0  0  0  0  0  0  0  0
    2.3928    0.2198    1.3274 N   0  0  0  0  0  0  0  0  0  0  0  0
   -5.2451   -1.2601    0.8851 C   0  0  0  0  0  0  0  0  0  0  0  0
   -1.2944    0.7082   -0.4590 N   0  0  0  0  0  0  0  0  0  0  0  0
   -5.6351    0.9555   -0.0120 C   0  0  0  0  0  0  0  0  0  0  0  0
    5.2715   -0.2101   -2.4123 O   0  0  0  0  0  0  0  0  0  0  0  0
    5.1054   -0.3052   -1.1661 C   0  0  0  0  0  0  0  0  0  0  0  0
  1  9  1  0
  1 18  1  0
  2 15  2  3
  2 16  1  0
  3 13  2  0
  4 17  2  0
  4 19  1  0
  5  6  1  0
  5 13  1  0
  6 12  2  0
  6 16  1  0
  7 11  1  0
  8  9  1  0
  8 19  2  0
  9 14  2  0
 10 19  1  0
 11 21  1  0
 13 18  1  0
 14 17  1  0
 15 21  1  0
 20 21  2  0
M  END
