
     RDKit          3D

 26 29  0  0  0  0  0  0  0  0999 V2000
   -1.4141    4.2494    0.0462 C   0  0  0  0  0  0  0  0  0  0  0  0
   -5.7313   -3.1415   -1.0998 F   0  0  0  0  0  0  0  0  0  0  0  0
    1.6961    0.5030    0.1395 C   0  0  0  0  0  0  0  0  0  0  0  0
   -2.3608   -1.1898    0.3819 C   0  0  0  0  0  0  0  0  0  0  0  0
   -2.9711   -2.2204    1.1198 C   0  0  0  0  0  0  0  0  0  0  0  0
   -2.9097    1.9534    0.6606 N   0  0  0  0  0  0  0  0  0  0  0  0
   -1.1545   -0.5081    0.9067 C   0  0  0  0  0  0  0  0  0  0  0  0
   -4.6334   -2.5080   -0.6187 C   0  0  0  0  0  0  0  0  0  0  0  0
   -4.0275   -1.4949   -1.3658 C   0  0  0  0  0  0  0  0  0  0  0  0
    4.0861    0.2985    0.5379 C   0  0  0  0  0  0  0  0  0  0  0  0
   -0.4357   -1.0882    1.7655 O   0  0  0  0  0  0  0  0  0  0  0  0
   -3.5331    3.1690    0.5965 C   0  0  0  0  0  0  0  0  0  0  0  0
   -4.1040   -2.8718    0.6220 C   0  0  0  0  0  0  0  0  0  0  0  0
   -2.7980    4.3372    0.2849 C   0  0  0  0  0  0  0  0  0  0  0  0
   -1.5788    1.8885    0.4018 C   0  0  0  0  0  0  0  0  0  0  0  0
    0.4571    1.3088    0.2055 C   0  0  0  0  0  0  0  0  0  0  0  0
   -2.8947   -0.8407   -0.8723 C   0  0  0  0  0  0  0  0  0  0  0  0
    5.3577   -1.7750   -0.1241 C   0  0  0  0  0  0  0  0  0  0  0  0
   -0.8351    2.9877    0.1188 C   0  0  0  0  0  0  0  0  0  0  0  0
   -0.7876    0.8072    0.4577 N   0  0  0  0  0  0  0  0  0  0  0  0
    4.0789   -0.9921   -0.0122 C   0  0  0  0  0  0  0  0  0  0  0  0
    2.9038    1.0408    0.6116 C   0  0  0  0  0  0  0  0  0  0  0  0
    0.4613    2.6551   -0.0087 N   0  0  0  0  0  0  0  0  0  0  0  0
    6.0545   -1.4164   -1.3545 N   0  0  0  0  0  0  0  0  0  0  0  0
    1.6979   -0.7751   -0.4442 C   0  0  0  0  0  0  0  0  0  0  0  0
    2.8802   -1.5170   -0.5182 C   0  0  0  0  0  0  0  0  0  0  0  0
  1 14  1  0
  1 19  2  0
  2  8  1  0
  3 16  1  0
  3 22  1  0
  3 25  2  0
  4  5  2  0
  4  7  1  0
  4 17  1  0
  5 13  1  0
  6 12  1  0
  6 15  2  0
  7 11  2  0
  7 20  1  0
  8  9  1  0
  8 13  2  0
  9 17  2  0
 10 21  1  0
 10 22  2  0
 12 14  2  0
 15 19  1  0
 15 20  1  0
 16 20  1  0
 16 23  2  0
 18 21  1  0
 18 24  1  0
 19 23  1  0
 21 26  2  0
 25 26  1  0
M  END
