
     RDKit          3D

 16 16  0  0  0  0  0  0  0  0999 V2000
   65.9365   -3.5895  -67.8269 C   0  0  0  0  0  0  0  0  0  0  0  0
   67.4153   -2.0960  -66.5800 C   0  0  0  0  0  0  0  0  0  0  0  0
   63.8083   -8.8211  -68.5080 C   0  0  0  0  0  0  0  0  0  0  0  0
   67.1425   -2.6879  -67.8972 C   0  0  0  0  0  0  0  0  0  0  0  0
   66.3873   -5.0274  -67.7050 C   0  0  0  0  0  0  0  0  0  0  0  0
   64.6683   -8.0409  -67.7410 C   0  0  0  0  0  0  0  0  0  0  0  0
   63.4527   -6.0519  -68.4052 C   0  0  0  0  0  0  0  0  0  0  0  0
   61.5114   -6.2254  -69.9439 O   0  0  0  0  0  0  0  0  0  0  0  0
   61.6427   -5.0181  -70.7211 C   0  0  0  0  0  0  0  0  0  0  0  0
   62.7667   -8.1887  -69.2226 C   0  0  0  0  0  0  0  0  0  0  0  0
   61.9032   -8.9206  -69.9586 O   0  0  0  0  0  0  0  0  0  0  0  0
   64.5031   -6.6629  -67.7021 C   0  0  0  0  0  0  0  0  0  0  0  0
   62.5928   -6.7692  -69.2099 C   0  0  0  0  0  0  0  0  0  0  0  0
   68.8578   -1.8174  -66.4331 C   0  0  0  0  0  0  0  0  0  0  0  0
   65.4204   -5.8849  -66.8861 C   0  0  0  0  0  0  0  0  0  0  0  0
   69.6111   -2.7703  -65.6030 C   0  0  0  0  0  0  0  0  0  0  0  0
  1  4  1  0
  1  5  1  0
  2  4  1  0
  2 14  1  0
  3  6  2  0
  3 10  1  0
  5 15  1  0
  6 12  1  0
  7 12  2  0
  7 13  1  0
  8  9  1  0
  8 13  1  0
 10 11  1  0
 10 13  2  0
 12 15  1  0
 14 16  1  0
M  END
$$$$
