
     RDKit          3D

 12 11  0  0  0  0  0  0  0  0999 V2000
   68.0516   -2.2286  -66.7646 C   0  0  0  0  0  0  0  0  0  0  0  0
   68.7886   -2.7091  -65.8302 C   0  0  0  0  0  0  0  0  0  0  0  0
   64.5408   -9.1658  -68.2145 C   0  0  0  0  0  0  0  0  0  0  0  0
   65.5439   -4.8260  -67.7716 C   0  0  0  0  0  0  0  0  0  0  0  0
   62.1712   -8.6420  -68.0545 O   0  0  0  0  0  0  0  0  0  0  0  0
   62.8627   -6.8681  -66.5231 O   0  0  0  0  0  0  0  0  0  0  0  0
   63.4551   -8.0658  -68.3899 C   0  0  0  0  0  0  0  0  0  0  0  0
   66.8703   -2.8863  -67.2779 C   0  0  0  0  0  0  0  0  0  0  0  0
   66.9587   -4.3905  -67.3596 C   0  0  0  0  0  0  0  0  0  0  0  0
   63.7176   -6.7714  -67.6269 C   0  0  0  0  0  0  0  0  0  0  0  0
   63.3776   -7.8473  -69.9431 C   0  0  0  0  0  0  0  0  0  0  0  0
   65.1329   -6.2204  -67.1876 C   0  0  0  0  0  0  0  0  0  0  0  0
  1  2  2  0
  1  8  1  0
  3  7  1  0
  4  9  1  0
  4 12  1  0
  5  7  1  0
  6 10  1  0
  7 10  1  0
  7 11  1  0
  8  9  1  0
 10 12  1  0
M  END
$$$$
