
     RDKit          3D

 14 14  0  0  0  0  0  0  0  0999 V2000
   67.0907   -2.4211  -66.9777 C   0  0  0  0  0  0  0  0  0  0  0  0
   62.4970   -9.3637  -69.4869 C   0  0  0  0  0  0  0  0  0  0  0  0
   66.5526   -3.5977  -67.8232 C   0  0  0  0  0  0  0  0  0  0  0  0
   62.5022   -7.1543  -70.3161 C   0  0  0  0  0  0  0  0  0  0  0  0
   62.9656   -8.9830  -68.2610 C   0  0  0  0  0  0  0  0  0  0  0  0
   65.0721   -5.4946  -67.3232 C   0  0  0  0  0  0  0  0  0  0  0  0
   62.9038   -6.7174  -69.1047 C   0  0  0  0  0  0  0  0  0  0  0  0
   62.2898   -8.4860  -70.5338 C   0  0  0  0  0  0  0  0  0  0  0  0
   65.1736   -4.0160  -67.4802 C   0  0  0  0  0  0  0  0  0  0  0  0
   63.5906   -7.1642  -66.8321 N   0  0  0  0  0  0  0  0  0  0  0  0
   68.4792   -2.4602  -66.7706 C   0  0  0  0  0  0  0  0  0  0  0  0
   63.8050   -5.9834  -66.9454 C   0  0  0  0  0  0  0  0  0  0  0  0
   63.1978   -7.6787  -67.9959 C   0  0  0  0  0  0  0  0  0  0  0  0
   68.9161   -2.6645  -65.3837 C   0  0  0  0  0  0  0  0  0  0  0  0
  1  3  1  0
  1 11  1  0
  2  5  1  0
  2  8  2  0
  3  9  1  0
  4  7  2  0
  4  8  1  0
  5 13  2  0
  6  9  1  0
  6 12  1  0
  7 13  1  0
 10 12  1  0
 10 13  1  0
 11 14  1  0
M  END
$$$$
