
     RDKit          3D

 25 29  0  0  0  0  0  0  0  0999 V2000
   66.0946   -0.9296  -69.5011 C   0  0  0  0  0  0  0  0  0  0  0  0
   61.4855   -8.2003  -69.9870 O   0  0  0  0  0  0  0  0  0  0  0  0
   64.4688   -5.6762  -68.5287 N   0  0  0  0  0  0  0  0  0  0  0  0
   65.1896   -7.5359  -66.9960 C   0  0  0  0  0  0  0  0  0  0  0  0
   61.8240   -5.3912  -70.8993 N   0  0  0  0  0  0  0  0  0  0  0  0
   69.0158   -2.7815  -65.5646 C   0  0  0  0  0  0  0  0  0  0  0  0
   63.5420   -5.3026  -69.4783 C   0  0  0  0  0  0  0  0  0  0  0  0
   64.2674   -3.0807  -69.8838 C   0  0  0  0  0  0  0  0  0  0  0  0
   64.1053   -1.8112  -70.5546 C   0  0  0  0  0  0  0  0  0  0  0  0
   65.4521   -4.6071  -68.2543 C   0  0  0  0  0  0  0  0  0  0  0  0
   63.2165   -7.9538  -68.5457 N   0  0  0  0  0  0  0  0  0  0  0  0
   62.4452   -4.1069  -70.9898 N   0  0  0  0  0  0  0  0  0  0  0  0
   65.3418   -3.2891  -68.9848 C   0  0  0  0  0  0  0  0  0  0  0  0
   67.6047   -3.5950  -67.3228 C   0  0  0  0  0  0  0  0  0  0  0  0
   68.7417   -3.7074  -66.6221 O   0  0  0  0  0  0  0  0  0  0  0  0
   70.5029   -2.6891  -65.3569 C   0  0  0  0  0  0  0  0  0  0  0  0
   62.5647   -6.0770  -69.9633 C   0  0  0  0  0  0  0  0  0  0  0  0
   63.0961   -9.3187  -68.0418 C   0  0  0  0  0  0  0  0  0  0  0  0
   66.6786   -4.6546  -67.4421 C   0  0  0  0  0  0  0  0  0  0  0  0
   63.4313   -4.0650  -70.1108 C   0  0  0  0  0  0  0  0  0  0  0  0
   66.2468   -2.1838  -68.8365 C   0  0  0  0  0  0  0  0  0  0  0  0
   64.2069   -7.0057  -68.0708 C   0  0  0  0  0  0  0  0  0  0  0  0
   64.9690   -0.7420  -70.3505 C   0  0  0  0  0  0  0  0  0  0  0  0
   67.3554   -2.3420  -68.0211 C   0  0  0  0  0  0  0  0  0  0  0  0
   62.3735   -7.4698  -69.5321 C   0  0  0  0  0  0  0  0  0  0  0  0
  1 21  4  0
  1 23  4  0
  2 25  2  0
  3  7  4  0
  3 10  1  0
  3 22  4  0
  4 22  1  0
  5 12  4  0
  5 17  4  0
  6 15  1  0
  6 16  1  0
  7 17  4  0
  7 20  4  0
  8  9  4  0
  8 13  4  0
  8 20  1  0
  9 23  4  0
 10 13  4  0
 10 19  4  0
 11 18  1  0
 11 22  4  0
 11 25  4  0
 12 20  4  0
 13 21  4  0
 14 15  1  0
 14 19  4  0
 14 24  4  0
 17 25  4  0
 21 24  4  0
M  END
$$$$
