
     RDKit          3D

 11 11  0  0  0  0  0  0  0  0999 V2000
  -36.8980   30.4386  -20.1406 C   0  0  0  0  0  0  0  0  0  0  0  0
  -35.9280   28.5665  -18.4498 N   0  0  0  0  0  0  0  0  0  0  0  0
  -35.8145   27.2708  -18.5148 C   0  0  0  0  0  0  0  0  0  0  0  0
  -36.6675   28.0297  -20.4557 N   0  0  0  0  0  0  0  0  0  0  0  0
  -36.8765   31.7756  -19.2013 C   0  0  0  0  0  0  0  0  0  0  0  0
  -36.2693   26.9547  -19.7359 C   0  0  0  0  0  0  0  0  0  0  0  0
  -36.6831   33.0293  -20.1225 C   0  0  0  0  0  0  0  0  0  0  0  0
  -36.4627   29.0771  -19.5855 N   0  0  0  0  0  0  0  0  0  0  0  0
  -37.4555   34.1024  -19.7358 C   0  0  0  0  0  0  0  0  0  0  0  0
  -38.6362   35.4508  -19.0960 N   0  0  0  0  0  0  0  0  0  0  0  0
  -35.8223   31.3919  -18.4485 O   0  0  0  0  0  0  0  0  0  0  0  0
  1  5  1  0
  1  8  1  0
  2  3  2  0
  2  8  1  0
  3  6  1  0
  4  6  2  0
  4  8  1  0
  5  7  1  0
  5 11  1  0
  7  9  1  0
  9 10  1  0
M  END
$$$$
