
     RDKit          3D

  8  7  0  0  0  0  0  0  0  0999 V2000
  -36.2857   27.9668  -19.3346 P   0  0  0  0  0  0  0  0  0  0  0  0
  -36.1358   32.3485  -19.1575 C   0  0  0  0  0  0  0  0  0  0  0  0
  -36.1077   30.8798  -19.7375 C   0  0  0  0  0  0  0  0  0  0  0  0
  -36.4477   27.4301  -20.7173 O   0  0  0  0  0  0  0  0  0  0  0  0
  -36.0601   33.6260  -20.1402 C   0  0  0  0  0  0  0  0  0  0  0  0
  -36.7611   26.8669  -18.3698 O   0  0  0  0  0  0  0  0  0  0  0  0
  -36.9434   35.4803  -19.0630 S   0  0  0  0  0  0  0  0  0  0  0  0
  -36.2957   29.6117  -18.7851 O   0  0  0  0  0  0  0  0  0  0  0  0
  1  4  2  0
  1  6  1  0
  1  8  1  0
  2  3  2  3
  2  5  1  0
  3  8  1  0
  5  7  1  0
M  END
$$$$
