
     RDKit          3D

 34 33  0  0  0  0  0  0  0  0999 V2000
    0.6161   31.3865   46.7896 C   0  0  0  0  0  0  0  0  0  0  0  0
    1.2310   23.8979   47.1325 C   0  0  0  0  0  0  0  0  0  0  0  0
    0.8818   30.6987   48.1235 C   0  0  0  0  0  0  0  0  0  0  0  0
    5.3985   30.4297   54.3050 C   0  0  0  0  0  0  0  0  0  0  0  0
    1.9233   26.3380   51.0800 N   0  0  0  0  0  0  0  0  0  0  0  0
    4.0218   26.0713   46.1683 N   0  0  0  0  0  0  0  0  0  0  0  0
    3.4781   27.9969   52.1453 C   0  0  2  0  0  0  0  0  0  0  0  0
    1.8964   24.8393   46.1463 C   0  0  0  0  0  0  0  0  0  0  0  0
    7.5590   25.2970   45.1040 C   0  0  0  0  0  0  0  0  0  0  0  0
    5.7210   29.1460   54.0398 C   0  0  0  0  0  0  0  0  0  0  0  0
    3.0788   26.7725   48.3841 C   0  0  0  0  0  0  0  0  0  0  0  0
    4.7621   28.0270   54.4122 C   0  0  0  0  0  0  0  0  0  0  0  0
    3.2127   27.8178   49.5286 C   0  0  2  0  0  0  0  0  0  0  0  0
    6.2039   31.6636   54.0267 C   0  0  0  0  0  0  0  0  0  0  0  0
    8.1614   25.8081   44.1735 O   0  0  0  0  0  0  0  0  0  0  0  0
    4.2374   27.1982   53.2299 C   0  0  0  0  0  0  0  0  0  0  0  0
    7.6902   23.9896   45.4483 O   0  0  0  0  0  0  0  0  0  0  0  0
    6.4711   25.2501   47.2186 O   0  0  0  0  0  0  0  0  0  0  0  0
    2.2202   28.5149   52.7309 N   0  0  0  0  0  0  0  0  0  0  0  0
    5.1337   27.2832   44.2977 C   0  0  0  0  0  0  0  0  0  0  0  0
    7.0304   28.7095   53.4388 C   0  0  0  0  0  0  0  0  0  0  0  0
    4.7873   27.9831   47.2092 O   0  0  0  0  0  0  0  0  0  0  0  0
    6.5564   26.0183   45.9987 C   0  0  2  0  0  0  0  0  0  0  0  0
    3.4096   24.8198   46.2813 C   0  0  0  0  0  0  0  0  0  0  0  0
    4.0396   23.7638   46.3327 O   0  0  0  0  0  0  0  0  0  0  0  0
    3.2780   30.3686   47.7242 N   0  0  0  0  0  0  0  0  0  0  0  0
    4.0165   27.0184   47.2049 C   0  0  0  0  0  0  0  0  0  0  0  0
    6.8581   28.5316   52.0416 O   0  0  0  0  0  0  0  0  0  0  0  0
    2.0367   29.6790   48.0656 C   0  0  1  0  0  0  0  0  0  0  0  0
    3.1954   27.0723   50.9040 C   0  0  2  0  0  0  0  0  0  0  0  0
    5.1937   26.0921   45.2643 C   0  0  1  0  0  0  0  0  0  0  0  0
    6.4100   32.3771   55.2417 O   0  0  0  0  0  0  0  0  0  0  0  0
    7.5302   31.9008   55.9769 C   0  0  0  0  0  0  0  0  0  0  0  0
    2.1479   28.9417   49.4185 C   0  0  0  0  0  0  0  0  0  0  0  0
  1  3  1  0
  2  8  1  0
  3 29  1  0
  4 10  2  3
  4 14  1  0
 30  5  1  1
  6 24  1  0
  6 27  1  0
  6 31  1  0
  7 16  1  0
  7 19  1  1
  7 30  1  0
  8 24  1  0
  9 15  2  0
  9 17  1  0
  9 23  1  0
 10 12  1  0
 10 21  1  0
 13 11  1  6
 11 27  1  0
 12 16  1  0
 13 30  1  0
 13 34  1  0
 14 32  1  0
 23 18  1  1
 31 20  1  1
 21 28  1  0
 22 27  2  0
 23 31  1  0
 24 25  2  0
 29 26  1  1
 29 34  1  0
 32 33  1  0
M  END
$$$$
