
     RDKit          3D

 17 18  0  0  0  0  0  0  0  0999 V2000
   16.5133   33.0916   13.8136 C   0  0  0  0  0  0  0  0  0  0  0  0
   14.0600   34.3921   15.6944 C   0  0  0  0  0  0  0  0  0  0  0  0
   12.8808   34.7635   16.3512 C   0  0  0  0  0  0  0  0  0  0  0  0
   17.8215   33.5419    9.7057 C   0  0  0  0  0  0  0  0  0  0  0  0
   16.8872   33.8368   10.8635 C   0  0  0  0  0  0  0  0  0  0  0  0
   18.7743   34.5975    9.6576 O   0  0  0  0  0  0  0  0  0  0  0  0
   17.6548   34.1748   12.0630 N   0  0  0  0  0  0  0  0  0  0  0  0
   14.9855   35.4159   15.4942 O   0  0  0  0  0  0  0  0  0  0  0  0
   16.6187   35.5080   13.6264 O   0  0  0  0  0  0  0  0  0  0  0  0
   11.9507   33.7664   16.5747 C   0  0  0  0  0  0  0  0  0  0  0  0
   14.2598   33.0520   15.2364 C   0  0  0  0  0  0  0  0  0  0  0  0
   19.7102   34.5023   10.7007 C   0  0  0  0  0  0  0  0  0  0  0  0
   13.2535   32.1309   15.5261 C   0  0  0  0  0  0  0  0  0  0  0  0
   15.4698   32.6132   14.5431 C   0  0  0  0  0  0  0  0  0  0  0  0
   18.9769   34.7836   11.9741 C   0  0  0  0  0  0  0  0  0  0  0  0
   12.0869   32.4771   16.1834 N   0  0  0  0  0  0  0  0  0  0  0  0
   16.9031   34.3833   13.2130 C   0  0  0  0  0  0  0  0  0  0  0  0
  1 14  2  3
  1 17  1  0
  2  3  1  0
  2  8  1  0
  2 11  2  0
  3 10  2  0
  4  5  1  0
  4  6  1  0
  5  7  1  0
  6 12  1  0
  7 15  1  0
  7 17  1  0
  9 17  2  0
 10 16  1  0
 11 13  1  0
 11 14  1  0
 12 15  1  0
 13 16  2  0
M  END
$$$$
