
     RDKit          3D

 11 11  0  0  0  0  0  0  0  0999 V2000
   10.8838   35.6286   17.7497 C   0  0  0  0  0  0  0  0  0  0  0  0
   11.2357   38.1001   17.6766 Cl  0  0  0  0  0  0  0  0  0  0  0  0
   11.7810   33.9484   16.2843 C   0  0  0  0  0  0  0  0  0  0  0  0
   12.5692   35.0138   15.5698 C   0  0  0  0  0  0  0  0  0  0  0  0
   14.3945   36.6206   13.0511 N   0  0  0  0  0  0  0  0  0  0  0  0
   14.2597   33.9005   15.0239 O   0  0  0  0  0  0  0  0  0  0  0  0
   13.6011   35.2369   13.1263 C   0  0  0  0  0  0  0  0  0  0  0  0
   12.4594   36.2660   15.9583 C   0  0  0  0  0  0  0  0  0  0  0  0
   13.1918   34.5411   14.6402 N   0  0  0  0  0  0  0  0  0  0  0  0
   10.9698   34.3035   17.3496 C   0  0  0  0  0  0  0  0  0  0  0  0
   11.6422   36.5551   17.0628 C   0  0  0  0  0  0  0  0  0  0  0  0
  1 10  2  0
  1 11  1  0
  2 11  1  0
  3  4  2  0
  3 10  1  0
  4  8  1  0
  4  9  1  0
  5  7  1  0
  6  9  1  0
  7  9  1  0
  8 11  2  0
M  END
$$$$
