
     RDKit          3D

 17 19  0  0  0  0  0  0  0  0999 V2000
   -2.2355  -30.0590  -13.1197 C   0  0  0  0  0  0  0  0  0  0  0  0
   -2.0460  -30.0863  -11.0522 C   0  0  0  0  0  0  0  0  0  0  0  0
   -0.8575  -30.3040  -11.6496 C   0  0  0  0  0  0  0  0  0  0  0  0
   -2.8854  -29.9323  -11.9723 N   0  0  0  0  0  0  0  0  0  0  0  0
   -2.4566  -29.9568   -9.5582 C   0  0  0  0  0  0  0  0  0  0  0  0
   -3.6972  -30.1195   -7.4373 C   0  0  0  0  0  0  0  0  0  0  0  0
   -1.2834  -30.4806   -7.5027 C   0  0  0  0  0  0  0  0  0  0  0  0
   -4.1982  -29.6134  -14.3061 O   0  0  0  0  0  0  0  0  0  0  0  0
   -1.4744  -30.7409  -17.0951 C   0  0  0  0  0  0  0  0  0  0  0  0
   -2.3347  -30.1680  -15.4562 C   0  0  0  0  0  0  0  0  0  0  0  0
   -2.4895  -30.4347   -6.8271 C   0  0  0  0  0  0  0  0  0  0  0  0
   -0.9131  -30.5038  -15.6842 C   0  0  0  0  0  0  0  0  0  0  0  0
   -1.3609  -30.1152   -8.8690 C   0  0  0  0  0  0  0  0  0  0  0  0
   -2.7879  -30.4951  -16.6188 N   0  0  0  0  0  0  0  0  0  0  0  0
   -2.9444  -29.8846  -14.3165 C   0  0  0  0  0  0  0  0  0  0  0  0
   -0.9203  -30.3070  -12.8738 N   0  0  0  0  0  0  0  0  0  0  0  0
   -3.7189  -29.8582   -8.8177 C   0  0  0  0  0  0  0  0  0  0  0  0
  1  4  1  0
  1 15  1  0
  1 16  1  0
  2  3  1  0
  2  4  2  0
  2  5  1  0
  3 16  2  0
  5 13  1  0
  5 17  2  0
  6 11  2  0
  6 17  1  0
  7 11  1  0
  7 13  2  0
  8 15  1  0
  9 12  1  0
  9 14  1  0
 10 12  1  0
 10 14  2  0
 10 15  1  0
M  END
$$$$
