
     RDKit          3D

 31 33  0  0  0  0  0  0  0  0999 V2000
    4.2814    0.2734   -1.7497 O   0  0  0  0  0  0  0  0  0  0  0  0
   -4.9849    2.1568   -1.3585 C   0  0  0  0  0  0  0  0  0  0  0  0
    1.3853   -0.3527    2.0053 O   0  0  0  0  0  0  0  0  0  0  0  0
    4.9815   -0.1918   -0.2774 P   0  0  2  0  0  0  0  0  0  0  0  0
    6.0406   -1.2362   -0.5496 O   0  0  0  0  0  0  0  0  0  0  0  0
    7.5470    1.0675   -1.5758 O   0  0  0  0  0  0  0  0  0  0  0  0
   -1.9580    1.0586   -0.0162 C   0  0  0  0  0  0  0  0  0  0  0  0
    6.5364    2.0491   -0.6354 P   0  0  0  0  0  0  0  0  0  0  0  0
    3.7904   -0.8940    0.7145 O   0  0  0  0  0  0  0  0  0  0  0  0
    0.8451   -1.3858    1.2148 C   0  0  0  0  0  0  0  0  0  0  0  0
   -2.5851    2.0029   -0.7712 N   0  0  0  0  0  0  0  0  0  0  0  0
    2.1799    1.0759   -0.0482 O   0  0  0  0  0  0  0  0  0  0  0  0
   -3.8698    1.6008   -0.7421 C   0  0  0  0  0  0  0  0  0  0  0  0
    5.4366    2.8531   -1.6401 O   0  0  0  0  0  0  0  0  0  0  0  0
    2.7002    0.3360    1.1661 P   0  0  1  0  0  0  0  0  0  0  0  0
   -3.9976    0.4725   -0.0075 C   0  0  0  0  0  0  0  0  0  0  0  0
   -6.2869    0.3756   -0.4429 C   0  0  0  0  0  0  0  0  0  0  0  0
   -4.8956    3.3437   -2.1468 N   0  0  0  0  0  0  0  0  0  0  0  0
   -1.0939   -3.0132    1.0427 C   0  0  1  0  0  0  0  0  0  0  0  0
   -6.1837    1.5221   -1.1899 N   0  0  0  0  0  0  0  0  0  0  0  0
   -1.3426   -0.8521    2.0568 O   0  0  0  0  0  0  0  0  0  0  0  0
   -2.8024    0.1135    0.4754 N   0  0  0  0  0  0  0  0  0  0  0  0
   -0.4292   -1.9172    1.8834 C   0  0  2  0  0  0  0  0  0  0  0  0
    5.6990    1.1290    0.5252 O   0  0  0  0  0  0  0  0  0  0  0  0
   -5.1827   -0.1637    0.1567 N   0  0  0  0  0  0  0  0  0  0  0  0
   -2.4664   -1.0923    1.2347 C   0  0  1  0  0  0  0  0  0  0  0  0
    3.4706    1.4320    2.2006 O   0  0  0  0  0  0  0  0  0  0  0  0
   -1.6356   -4.0260    1.8606 O   0  0  0  0  0  0  0  0  0  0  0  0
   -3.3118   -3.0289    0.0652 O   0  0  0  0  0  0  0  0  0  0  0  0
   -2.1644   -2.2531    0.2957 C   0  0  2  0  0  0  0  0  0  0  0  0
    7.3822    3.0780    0.0797 O   0  0  0  0  0  0  0  0  0  0  0  0
  4  1  1  6
  2 13  2  0
  2 18  1  0
  2 20  1  0
  3 10  1  0
  3 15  1  0
  4  5  2  0
  4  9  1  0
  4 24  1  0
  6  8  1  0
  7 11  2  0
  7 22  1  0
  8 14  1  0
  8 24  1  0
  8 31  2  0
  9 15  1  0
 23 10  1  6
 11 13  1  0
 12 15  2  0
 13 16  1  0
 15 27  1  1
 16 22  1  0
 16 25  2  0
 17 20  2  0
 17 25  1  0
 19 23  1  0
 19 28  1  1
 19 30  1  0
 21 23  1  0
 21 26  1  0
 26 22  1  6
 26 30  1  0
 30 29  1  1
M  END
