
     RDKit          3D

 28 30  0  0  0  0  0  0  0  0999 V2000
   -2.3817    2.8948   -0.5086 C   0  0  0  0  0  0  0  0  0  0  0  0
    3.7869   -1.1516    2.3393 O   0  0  0  0  0  0  0  0  0  0  0  0
    0.8507   -1.0603    0.5006 C   0  0  1  0  0  0  0  0  0  0  0  0
    4.5628    3.7582    0.3449 O   0  0  0  0  0  0  0  0  0  0  0  0
   -0.3012   -0.3790    0.9560 O   0  0  0  0  0  0  0  0  0  0  0  0
   -1.3906   -1.2558    0.7961 C   0  0  1  0  0  0  0  0  0  0  0  0
    4.3769   -0.2421    1.0408 P   0  0  1  0  0  0  0  0  0  0  0  0
    7.0918    2.3757    1.0126 S   0  0  0  0  0  0  0  0  0  0  0  0
   -6.0445    2.5654   -0.1626 N   0  0  0  0  0  0  0  0  0  0  0  0
   -3.8998   -0.9881    0.9123 C   0  0  0  0  0  0  0  0  0  0  0  0
    5.8496   -0.5497    0.8790 O   0  0  0  0  0  0  0  0  0  0  0  0
   -1.9374    1.6655   -0.1087 N   0  0  0  0  0  0  0  0  0  0  0  0
   -4.6518    2.2529   -0.1365 C   0  0  0  0  0  0  0  0  0  0  0  0
    3.3462   -0.8161   -0.7296 S   0  0  0  0  0  0  0  0  0  0  0  0
    0.4158   -2.2737   -0.3570 C   0  0  2  0  0  0  0  0  0  0  0  0
    4.1296    1.4084    1.3909 O   0  0  0  0  0  0  0  0  0  0  0  0
   -2.6490   -0.5097    0.6857 N   0  0  0  0  0  0  0  0  0  0  0  0
   -3.7237    3.1799   -0.5203 N   0  0  0  0  0  0  0  0  0  0  0  0
   -1.1061   -2.1328   -0.4385 C   0  0  1  0  0  0  0  0  0  0  0  0
    5.0191    1.7614   -1.2580 O   0  0  0  0  0  0  0  0  0  0  0  0
   -1.7694   -3.3786   -0.3904 O   0  0  0  0  0  0  0  0  0  0  0  0
   -2.8598    0.7501    0.2768 C   0  0  0  0  0  0  0  0  0  0  0  0
   -4.1877    1.0071    0.2702 C   0  0  0  0  0  0  0  0  0  0  0  0
    1.7336   -0.0742   -0.2782 C   0  0  0  0  0  0  0  0  0  0  0  0
   -1.5031   -1.4356   -1.7570 C   0  0  0  0  0  0  0  0  0  0  0  0
    0.8123   -3.4881    0.2396 O   0  0  0  0  0  0  0  0  0  0  0  0
    5.0868    2.3409    0.3330 P   0  0  1  0  0  0  0  0  0  0  0  0
   -4.8811   -0.0760    0.6685 N   0  0  0  0  0  0  0  0  0  0  0  0
  1 12  1  0
  1 18  2  0
  7  2  1  1
  3  5  1  0
  3 15  1  0
  3 24  1  6
  4 27  2  0
  5  6  1  0
  6 17  1  6
  6 19  1  0
  7 11  2  0
  7 14  1  0
  7 16  1  0
  8 27  1  0
  9 13  1  0
 10 17  1  0
 10 28  2  0
 12 22  2  0
 13 18  1  0
 13 23  2  0
 14 24  1  0
 15 19  1  0
 15 26  1  1
 16 27  1  0
 17 22  1  0
 19 21  1  0
 19 25  1  6
 27 20  1  6
 22 23  1  0
 23 28  1  0
M  END
