
     RDKit          3D

 31 32  0  0  0  0  0  0  0  0999 V2000
   -2.3232   -0.4962   -3.8145 O   0  0  0  0  0  0  0  0  0  0  0  0
    0.4592    5.6074   -0.5304 O   0  0  0  0  0  0  0  0  0  0  0  0
   -1.7497   -0.9154    0.6823 N   0  0  0  0  0  0  0  0  0  0  0  0
   -0.1874    3.7756    1.2075 O   0  0  0  0  0  0  0  0  0  0  0  0
   -2.2495   -2.9721    2.3745 C   0  0  0  0  0  0  0  0  0  0  0  0
    2.2065    0.5065    0.9175 P   0  0  1  0  0  0  0  0  0  0  0  0
   -1.7176    1.8971   -3.0464 O   0  0  0  0  0  0  0  0  0  0  0  0
   -1.7043   -2.1925    0.2172 C   0  0  0  0  0  0  0  0  0  0  0  0
   -2.0564   -0.4319   -2.4359 C   0  0  2  0  0  0  0  0  0  0  0  0
   -1.3851   -2.4599   -1.1666 N   0  0  0  0  0  0  0  0  0  0  0  0
    1.9364    1.2913   -0.5809 O   0  0  0  0  0  0  0  0  0  0  0  0
    3.8721    0.1655    1.0282 O   0  0  0  0  0  0  0  0  0  0  0  0
   -1.5226    0.9329   -2.0432 C   0  0  1  0  0  0  0  0  0  0  0  0
    2.3514    3.9302    0.5565 O   0  0  0  0  0  0  0  0  0  0  0  0
    0.4494    2.9347   -1.2234 O   0  0  0  0  0  0  0  0  0  0  0  0
    5.7955   -0.7935    2.7528 O   0  0  0  0  0  0  0  0  0  0  0  0
    1.7559    1.5337    2.1891 O   0  0  0  0  0  0  0  0  0  0  0  0
   -2.0918    0.6784    2.4585 N   0  0  0  0  0  0  0  0  0  0  0  0
   -2.2902   -1.6955    2.8301 N   0  0  0  0  0  0  0  0  0  0  0  0
    3.5209   -2.7784    2.0893 S   0  0  0  0  0  0  0  0  0  0  0  0
    1.4025   -0.7745    0.9796 O   0  0  0  0  0  0  0  0  0  0  0  0
    0.1222   -0.6646   -1.4427 O   0  0  0  0  0  0  0  0  0  0  0  0
    4.1367   -0.7818    2.4218 P   0  0  2  0  0  0  0  0  0  0  0  0
   -1.9589   -3.2191    1.0727 N   0  0  0  0  0  0  0  0  0  0  0  0
    3.4078   -0.2193    3.6227 O   0  0  0  0  0  0  0  0  0  0  0  0
    0.5637    1.6097   -0.7456 C   0  0  1  0  0  0  0  0  0  0  0  0
   -1.4987   -3.8335   -1.6687 C   0  0  0  0  0  0  0  0  0  0  0  0
    0.7419    4.0417    0.0438 P   0  0  0  0  0  0  0  0  0  0  0  0
   -2.0416   -0.6647    1.9835 C   0  0  0  0  0  0  0  0  0  0  0  0
   -0.0330    0.6805   -1.8206 C   0  0  2  0  0  0  0  0  0  0  0  0
   -0.9144   -1.3889   -2.0647 C   0  0  2  0  0  0  0  0  0  0  0  0
  9  1  1  6
  2 28  1  0
  3  8  1  0
  3 29  2  0
  4 28  2  0
  5 19  2  0
  5 24  1  0
  6 11  1  0
  6 12  1  0
  6 17  1  1
  6 21  2  0
 13  7  1  6
  8 10  1  0
  8 24  2  0
  9 13  1  0
  9 31  1  0
 10 27  1  0
 31 10  1  1
 26 11  1  6
 12 23  1  0
 13 30  1  0
 14 28  1  0
 15 26  1  0
 15 28  1  0
 23 16  1  1
 18 29  1  0
 19 29  1  0
 20 23  1  0
 30 22  1  1
 22 31  1  0
 23 25  2  0
 26 30  1  0
M  END
