
     RDKit          3D

 20 21  0  0  0  0  0  0  0  0999 V2000
   -3.7434   -0.4413    0.2584 O   0  0  0  0  0  0  0  0  0  0  0  0
   -5.2293    0.2797   -0.1653 P   0  0  0  0  0  0  0  0  0  0  0  0
    4.1565    1.0547   -1.1227 N   0  0  0  0  0  0  0  0  0  0  0  0
    4.5804   -0.1375   -1.3783 C   0  0  0  0  0  0  0  0  0  0  0  0
   -6.3228   -0.7608   -0.0812 O   0  0  0  0  0  0  0  0  0  0  0  0
   -5.5873    1.5456    0.9002 O   0  0  0  0  0  0  0  0  0  0  0  0
    0.0387   -0.4482    2.4239 O   0  0  0  0  0  0  0  0  0  0  0  0
   -1.3856   -0.0953    0.5450 C   0  0  1  0  0  0  0  0  0  0  0  0
   -2.7335    0.5350    0.1584 C   0  0  0  0  0  0  0  0  0  0  0  0
   -0.5032    2.1416    0.7673 O   0  0  0  0  0  0  0  0  0  0  0  0
    0.7773    0.2320    1.4283 C   0  0  2  0  0  0  0  0  0  0  0  0
    3.7608   -1.1856   -0.7079 C   0  0  1  0  0  0  0  0  0  0  0  0
    4.5331   -1.8823    0.2300 O   0  0  0  0  0  0  0  0  0  0  0  0
    3.0419    0.9716   -0.2846 N   0  0  0  0  0  0  0  0  0  0  0  0
   -5.1577    0.8805   -1.7465 O   0  0  0  0  0  0  0  0  0  0  0  0
    5.7051   -0.3954   -2.2156 N   0  0  0  0  0  0  0  0  0  0  0  0
   -0.1913    0.8191    0.4025 C   0  0  1  0  0  0  0  0  0  0  0  0
    2.7924   -0.2715   -0.0334 C   0  0  0  0  0  0  0  0  0  0  0  0
    1.7014   -0.7066    0.7875 N   0  0  0  0  0  0  0  0  0  0  0  0
   -1.3061   -0.5091    2.0048 C   0  0  0  0  0  0  0  0  0  0  0  0
  1  2  1  0
  1  9  1  0
  2  5  2  0
  2  6  1  0
  2 15  1  0
  3  4  2  0
  3 14  1  0
  4 12  1  0
  4 16  1  0
  7 11  1  0
  7 20  1  0
  8  9  1  1
  8 17  1  0
  8 20  1  0
 17 10  1  1
 11 17  1  0
 11 19  1  6
 12 13  1  1
 12 18  1  0
 14 18  2  0
 18 19  1  0
M  END
