
     RDKit          3D

 34 38  0  0  0  0  0  0  0  0999 V2000
  -12.8597   19.0144   -3.5191 C   0  0  0  0  0  0  0  0  0  0  0  0
  -18.3820   21.1843  -15.5323 C   0  0  0  0  0  0  0  0  0  0  0  0
  -17.0697   21.1419  -13.8848 C   0  0  0  0  0  0  0  0  0  0  0  0
  -16.8479   20.4891  -17.4340 C   0  0  0  0  0  0  0  0  0  0  0  0
  -18.0840   19.3455  -10.1952 C   0  0  0  0  0  0  0  0  0  0  0  0
  -14.9065   19.0957   -5.4440 C   0  0  0  0  0  0  0  0  0  0  0  0
  -15.6823   18.4379   -7.5572 C   0  0  0  0  0  0  0  0  0  0  0  0
  -15.9228   19.0421   -6.3788 N   0  0  0  0  0  0  0  0  0  0  0  0
  -16.9868   19.3850   -9.3505 C   0  0  0  0  0  0  0  0  0  0  0  0
  -16.3168   21.4380  -19.4872 N   0  0  0  0  0  0  0  0  0  0  0  0
  -14.3936   17.9625   -7.9681 N   0  0  0  0  0  0  0  0  0  0  0  0
  -17.1781   20.8074  -16.0057 N   0  0  0  0  0  0  0  0  0  0  0  0
  -15.2949   21.6080  -12.4831 O   0  0  0  0  0  0  0  0  0  0  0  0
  -15.0283   19.7596   -4.2017 C   0  0  0  0  0  0  0  0  0  0  0  0
  -14.0384   19.7159   -3.2264 C   0  0  0  0  0  0  0  0  0  0  0  0
  -13.6255   18.3797   -5.7340 C   0  0  0  0  0  0  0  0  0  0  0  0
  -16.5334   21.2773  -12.5594 C   0  0  0  0  0  0  0  0  0  0  0  0
  -18.3640   21.3943  -14.2786 C   0  0  0  0  0  0  0  0  0  0  0  0
  -18.3268   20.4808  -11.2080 C   0  0  0  0  0  0  0  0  0  0  0  0
  -18.9844   18.3111  -10.1277 C   0  0  0  0  0  0  0  0  0  0  0  0
  -12.6057   18.3670   -4.7246 C   0  0  0  0  0  0  0  0  0  0  0  0
  -14.7642   20.4098  -15.0430 Cl  0  0  0  0  0  0  0  0  0  0  0  0
  -18.0148   20.3758  -18.3427 C   0  0  0  0  0  0  0  0  0  0  0  0
  -17.1397   21.0741  -11.4737 N   0  0  0  0  0  0  0  0  0  0  0  0
  -17.5162   20.5733  -19.8126 C   0  0  0  0  0  0  0  0  0  0  0  0
  -16.7922   18.3913   -8.4081 C   0  0  0  0  0  0  0  0  0  0  0  0
  -15.8582   21.4276  -18.0964 C   0  0  0  0  0  0  0  0  0  0  0  0
  -12.4541   17.2090   -7.3667 O   0  0  0  0  0  0  0  0  0  0  0  0
  -17.7320   17.3743   -8.3421 C   0  0  0  0  0  0  0  0  0  0  0  0
  -16.4112   20.8086  -14.9376 C   0  0  0  0  0  0  0  0  0  0  0  0
  -18.8423   17.3156   -9.1970 C   0  0  0  0  0  0  0  0  0  0  0  0
  -13.4457   17.7918   -7.0498 C   0  0  0  0  0  0  0  0  0  0  0  0
  -15.5050   22.0095  -20.5266 C   0  0  0  0  0  0  0  0  0  0  0  0
  -11.9440   19.0111   -2.5754 F   0  0  0  0  0  0  0  0  0  0  0  0
  1 15  1  0
  1 21  2  0
  1 34  1  0
  2 12  1  0
  2 18  2  0
  3 17  1  0
  3 18  1  0
  3 30  2  0
  4 12  1  0
  4 23  1  0
  4 27  1  0
  5  9  2  0
  5 19  1  0
  5 20  1  0
  6  8  1  0
  6 14  1  0
  6 16  2  0
  7  8  2  0
  7 11  1  0
  7 26  1  0
  9 26  1  0
 10 25  1  0
 10 27  1  0
 10 33  1  0
 11 32  1  0
 12 30  1  0
 13 17  2  0
 14 15  2  0
 16 21  1  0
 16 32  1  0
 17 24  1  0
 19 24  1  0
 20 31  2  0
 22 30  1  0
 23 25  1  0
 26 29  2  0
 28 32  2  0
 29 31  1  0
M  END
$$$$
