
     RDKit          3D

 32 34  0  0  0  0  0  0  0  0999 V2000
  -15.7917   22.0319  -11.6487 O   0  0  0  0  0  0  0  0  0  0  0  0
  -16.2361   22.2160  -20.8010 N   0  0  0  0  0  0  0  0  0  0  0  0
  -16.3362   20.9430  -11.8323 C   0  0  0  0  0  0  0  0  0  0  0  0
  -18.7408   21.8085  -12.7740 C   0  0  0  0  0  0  0  0  0  0  0  0
  -14.7765   19.0006   -5.4326 C   0  0  0  0  0  0  0  0  0  0  0  0
  -15.9402   21.3939  -15.2201 C   0  0  0  0  0  0  0  0  0  0  0  0
  -15.8634   19.1461   -6.3648 C   0  0  0  0  0  0  0  0  0  0  0  0
  -17.7054   18.3372   -8.8945 C   0  0  0  0  0  0  0  0  0  0  0  0
  -16.8934   19.8050   -6.0556 O   0  0  0  0  0  0  0  0  0  0  0  0
  -15.5709   20.4010  -14.1421 C   0  0  0  0  0  0  0  0  0  0  0  0
  -12.7136   18.8951   -3.3000 C   0  0  0  0  0  0  0  0  0  0  0  0
  -15.7278   21.2971  -17.6956 C   0  0  0  0  0  0  0  0  0  0  0  0
  -16.7808   20.0555  -10.7168 C   0  0  0  0  0  0  0  0  0  0  0  0
  -16.4546   18.9033   -8.6639 C   0  0  0  0  0  0  0  0  0  0  0  0
  -13.1213   18.0574   -8.0179 N   0  0  0  0  0  0  0  0  0  0  0  0
  -16.6444   20.4435  -13.1244 N   0  0  0  0  0  0  0  0  0  0  0  0
  -16.3913   20.6194  -18.8526 C   0  0  0  0  0  0  0  0  0  0  0  0
  -16.2229   20.5474  -16.4908 C   0  0  0  0  0  0  0  0  0  0  0  0
  -12.6093   18.1674   -4.5881 C   0  0  0  0  0  0  0  0  0  0  0  0
  -18.4625   18.6347   -9.9909 C   0  0  0  0  0  0  0  0  0  0  0  0
  -13.8820   19.6665   -3.1660 C   0  0  0  0  0  0  0  0  0  0  0  0
  -17.2553   22.0547  -14.8693 C   0  0  0  0  0  0  0  0  0  0  0  0
  -17.7778   21.1949  -13.7635 C   0  0  0  0  0  0  0  0  0  0  0  0
  -15.7121   18.5653   -7.5958 N   0  0  0  0  0  0  0  0  0  0  0  0
  -13.6158   18.2496   -5.6595 C   0  0  0  0  0  0  0  0  0  0  0  0
  -15.9637   19.8276   -9.6022 C   0  0  0  0  0  0  0  0  0  0  0  0
  -13.0402   16.2863   -6.8129 O   0  0  0  0  0  0  0  0  0  0  0  0
  -13.2853   17.4559   -6.8633 C   0  0  0  0  0  0  0  0  0  0  0  0
  -17.9521   19.4948  -10.8724 N   0  0  0  0  0  0  0  0  0  0  0  0
  -18.2899   17.1475   -7.8479 Cl  0  0  0  0  0  0  0  0  0  0  0  0
  -16.2484   21.5395  -19.9384 C   0  0  0  0  0  0  0  0  0  0  0  0
  -14.8838   19.7250   -4.1984 C   0  0  0  0  0  0  0  0  0  0  0  0
  1  3  2  0
  2 31  3  0
  3 13  1  0
  3 16  1  0
  4 23  1  0
  5  7  1  0
  5 25  1  0
  5 32  2  0
  6 10  1  0
  6 18  1  0
  6 22  1  0
  7  9  2  0
  7 24  1  0
  8 14  2  0
  8 20  1  0
  8 30  1  0
 10 16  1  0
 11 19  1  0
 11 21  2  0
 12 17  1  0
 12 18  1  0
 13 26  2  0
 13 29  1  0
 14 24  1  0
 14 26  1  0
 15 28  1  0
 16 23  1  0
 17 31  1  0
 19 25  2  0
 20 29  2  0
 21 32  1  0
 22 23  1  0
 25 28  1  0
 27 28  2  0
M  END
$$$$
