
     RDKit          3D

 28 31  0  0  0  0  0  0  0  0999 V2000
  -14.8092   19.1419   -5.2871 C   0  0  0  0  0  0  0  0  0  0  0  0
  -13.6074   18.4923   -5.6516 C   0  0  0  0  0  0  0  0  0  0  0  0
  -12.5884   19.0406   -3.5626 C   0  0  0  0  0  0  0  0  0  0  0  0
  -16.8833   18.6869   -8.3830 C   0  0  0  0  0  0  0  0  0  0  0  0
  -14.9715   21.4705  -18.3293 N   0  0  0  0  0  0  0  0  0  0  0  0
  -12.6558   17.2441   -7.4419 O   0  0  0  0  0  0  0  0  0  0  0  0
  -12.4928   18.4319   -4.7879 C   0  0  0  0  0  0  0  0  0  0  0  0
  -14.6844   17.9971   -7.8026 N   0  0  0  0  0  0  0  0  0  0  0  0
  -13.6331   17.8755   -7.0309 C   0  0  0  0  0  0  0  0  0  0  0  0
  -18.9301   18.8925  -10.2307 C   0  0  0  0  0  0  0  0  0  0  0  0
  -14.9768   21.7009  -15.9782 N   0  0  0  0  0  0  0  0  0  0  0  0
  -15.6160   21.3580  -17.0648 C   0  0  0  0  0  0  0  0  0  0  0  0
  -15.8206   18.6902   -7.3151 C   0  0  0  0  0  0  0  0  0  0  0  0
  -18.9013   17.8041   -9.3462 C   0  0  0  0  0  0  0  0  0  0  0  0
  -17.6337   20.8071  -15.8654 C   0  0  0  0  0  0  0  0  0  0  0  0
  -16.9067   20.8541  -17.0322 N   0  0  0  0  0  0  0  0  0  0  0  0
  -17.6667   21.4060  -13.4201 C   0  0  0  0  0  0  0  0  0  0  0  0
  -16.9263   21.2115  -14.7273 C   0  0  0  0  0  0  0  0  0  0  0  0
  -17.6257   20.3156  -18.1729 C   0  0  0  0  0  0  0  0  0  0  0  0
  -13.7097   19.6549   -3.1722 N   0  0  0  0  0  0  0  0  0  0  0  0
  -15.9046   19.2449   -6.1092 N   0  0  0  0  0  0  0  0  0  0  0  0
  -18.0341   21.0526  -11.1830 C   0  0  0  0  0  0  0  0  0  0  0  0
  -17.0987   20.9996  -12.3105 N   0  0  0  0  0  0  0  0  0  0  0  0
  -17.9400   19.8749  -10.2162 C   0  0  0  0  0  0  0  0  0  0  0  0
  -15.6353   21.5960  -14.7612 C   0  0  0  0  0  0  0  0  0  0  0  0
  -16.9066   19.7724   -9.2861 C   0  0  0  0  0  0  0  0  0  0  0  0
  -17.8720   17.6908   -8.4291 C   0  0  0  0  0  0  0  0  0  0  0  0
  -14.7888   19.7195   -3.9941 C   0  0  0  0  0  0  0  0  0  0  0  0
  1  2  2  0
  1 21  1  0
  1 28  1  0
  2  7  1  0
  2  9  1  0
  3  7  2  0
  3 20  1  0
  4 13  1  0
  4 26  1  0
  4 27  2  0
  5 12  1  0
  6  9  2  0
  8  9  1  0
  8 13  1  0
 10 14  2  0
 10 24  1  0
 11 12  2  0
 11 25  1  0
 12 16  1  0
 13 21  2  0
 14 27  1  0
 15 16  1  0
 15 18  2  0
 16 19  1  0
 17 18  1  0
 17 23  1  0
 18 25  1  0
 20 28  2  0
 22 23  1  0
 22 24  1  0
 24 26  2  0
M  END
$$$$
