
     RDKit          3D

  9  8  0  0  0  0  0  0  0  0999 V2000
   62.8979  100.0697   26.0105 O   0  0  0  0  0  0  0  0  0  0  0  0
   62.2983   99.4035   30.0914 O   0  0  0  0  0  0  0  0  0  0  0  0
   62.2810   98.3251   29.2544 C   0  0  0  0  0  0  0  0  0  0  0  0
   64.7335   99.1317   27.1509 C   0  0  0  0  0  0  0  0  0  0  0  0
   62.1378   97.1933   29.7253 O   0  0  0  0  0  0  0  0  0  0  0  0
   62.3632   98.7078   27.7573 C   0  0  0  0  0  0  0  0  0  0  0  0
   65.7086   99.2436   28.1273 O   0  0  0  0  0  0  0  0  0  0  0  0
   62.0471   97.7271   26.8712 O   0  0  0  0  0  0  0  0  0  0  0  0
   63.3751   99.7313   27.3258 C   0  0  0  0  0  0  0  0  0  0  0  0
  1  9  1  0
  2  3  1  0
  3  5  2  0
  3  6  1  0
  4  7  1  0
  4  9  1  0
  6  8  1  0
  6  9  1  0
M  END
$$$$
