
     RDKit          3D

 24 25  0  0  0  0  0  0  0  0999 V2000
   70.4251   53.5127   46.5513 O   0  0  0  0  0  0  0  0  0  0  0  0
   70.3064   50.4699   44.0488 C   0  0  0  0  0  0  0  0  0  0  0  0
   71.3736   54.4601   41.3120 C   0  0  0  0  0  0  0  0  0  0  0  0
   72.2871   54.1124   45.6739 N   0  0  0  0  0  0  0  0  0  0  0  0
   74.1062   54.0803   41.8591 C   0  0  0  0  0  0  0  0  0  0  0  0
   73.6055   52.1043   42.9210 O   0  0  0  0  0  0  0  0  0  0  0  0
   74.1651   57.5117   39.9291 C   0  0  0  0  0  0  0  0  0  0  0  0
   74.5342   56.0365   40.2414 C   0  0  0  0  0  0  0  0  0  0  0  0
   69.7751   50.5236   42.8019 C   0  0  0  0  0  0  0  0  0  0  0  0
   70.7492   52.7610   43.1042 C   0  0  0  0  0  0  0  0  0  0  0  0
   72.5121   55.4088   45.1722 C   0  0  0  0  0  0  0  0  0  0  0  0
   74.6998   55.2638   38.9453 C   0  0  0  0  0  0  0  0  0  0  0  0
   73.1637   53.1403   42.3972 C   0  0  0  0  0  0  0  0  0  0  0  0
   72.1807   55.0173   40.5000 C   0  0  0  0  0  0  0  0  0  0  0  0
   69.8503   51.9467   42.2658 C   0  0  0  0  0  0  0  0  0  0  0  0
   70.2241   54.7777   41.1575 C   0  0  0  0  0  0  0  0  0  0  0  0
   73.5917   58.0958   41.2218 C   0  0  0  0  0  0  0  0  0  0  0  0
   71.0940   53.4021   45.5528 C   0  0  0  0  0  0  0  0  0  0  0  0
   73.2931   53.3500   45.7855 O   0  0  0  0  0  0  0  0  0  0  0  0
   69.7347   51.4607   44.9454 C   0  0  0  0  0  0  0  0  0  0  0  0
   71.8289   53.5029   42.3663 C   0  0  0  0  0  0  0  0  0  0  0  0
   75.0845   54.3495   42.8711 O   0  0  0  0  0  0  0  0  0  0  0  0
   70.5973   52.5384   44.5072 C   0  0  0  0  0  0  0  0  0  0  0  0
   73.5217   55.3337   41.1632 C   0  0  0  0  0  0  0  0  0  0  0  0
  1 18  2  0
  2  9  1  0
  2 20  1  0
  3 14  1  0
  3 16  2  0
  3 21  1  0
  4 11  1  0
  4 18  1  0
  4 19  1  0
  5 13  1  0
  5 22  1  0
  5 24  1  0
  6 13  2  0
  7  8  1  0
  7 17  1  0
  8 12  1  0
  8 24  1  0
  9 15  1  0
 10 15  1  0
 10 21  1  0
 10 23  2  0
 13 21  1  0
 14 24  1  0
 18 23  1  0
 20 23  1  0
M  END
$$$$
