
     RDKit          3D

 18 20  0  0  0  0  0  0  0  0999 V2000
   73.0627   55.1007   42.4336 C   0  0  0  0  0  0  0  0  0  0  0  0
   74.0952   56.3890   40.8177 C   0  0  0  0  0  0  0  0  0  0  0  0
   70.2624   52.4293   45.4180 N   0  0  0  0  0  0  0  0  0  0  0  0
   71.0756   53.4615   45.3179 C   0  0  0  0  0  0  0  0  0  0  0  0
   73.1637   54.3104   40.2520 C   0  0  0  0  0  0  0  0  0  0  0  0
   70.1431   51.6829   44.3268 C   0  0  0  0  0  0  0  0  0  0  0  0
   71.8033   53.7695   44.0157 C   0  0  0  0  0  0  0  0  0  0  0  0
   72.8888   55.7177   44.7206 O   0  0  0  0  0  0  0  0  0  0  0  0
   71.2056   54.2196   46.3746 N   0  0  0  0  0  0  0  0  0  0  0  0
   70.7704   51.7942   43.1146 C   0  0  0  0  0  0  0  0  0  0  0  0
   71.5857   52.8830   42.9622 C   0  0  0  0  0  0  0  0  0  0  0  0
   72.7099   54.1323   41.5395 C   0  0  0  0  0  0  0  0  0  0  0  0
   72.6418   54.8620   43.7928 C   0  0  0  0  0  0  0  0  0  0  0  0
   72.0953   53.0139   41.7568 N   0  0  0  0  0  0  0  0  0  0  0  0
   73.7236   56.2362   42.0968 C   0  0  0  0  0  0  0  0  0  0  0  0
   69.1440   50.6333   44.5455 C   0  0  0  0  0  0  0  0  0  0  0  0
   74.7136   57.5239   40.4142 N   0  0  0  0  0  0  0  0  0  0  0  0
   73.8079   55.3905   39.9422 C   0  0  0  0  0  0  0  0  0  0  0  0
  1 12  1  0
  1 13  1  0
  1 15  2  0
  2 15  1  0
  2 17  1  0
  2 18  2  0
  3  4  2  0
  3  6  1  0
  4  7  1  0
  4  9  1  0
  5 12  2  0
  5 18  1  0
  6 10  2  0
  6 16  1  0
  7 11  2  0
  7 13  1  0
  8 13  2  0
 10 11  1  0
 11 14  1  0
 12 14  1  0
M  END
$$$$
