
     RDKit          3D

 16 17  0  0  0  0  0  0  0  0999 V2000
   69.6834   52.0299   46.0198 C   0  0  0  0  0  0  0  0  0  0  0  0
   71.0716   54.0779   43.0145 N   0  0  0  0  0  0  0  0  0  0  0  0
   74.1289   55.3945   40.6127 C   0  0  0  0  0  0  0  0  0  0  0  0
   71.0088   53.1818   47.6381 C   0  0  0  0  0  0  0  0  0  0  0  0
   73.2253   53.7468   42.0583 C   0  0  0  0  0  0  0  0  0  0  0  0
   71.6963   54.7335   45.5602 O   0  0  0  0  0  0  0  0  0  0  0  0
   72.0764   54.4889   42.1949 C   0  0  0  0  0  0  0  0  0  0  0  0
   75.1427   55.8433   39.8310 N   0  0  0  0  0  0  0  0  0  0  0  0
   71.1346   53.0437   43.9820 C   0  0  0  0  0  0  0  0  0  0  0  0
   71.2111   53.6435   45.3285 C   0  0  0  0  0  0  0  0  0  0  0  0
   70.0849   52.0808   43.6981 C   0  0  0  0  0  0  0  0  0  0  0  0
   74.2360   54.2041   41.2837 C   0  0  0  0  0  0  0  0  0  0  0  0
   72.9904   56.1311   40.7365 C   0  0  0  0  0  0  0  0  0  0  0  0
   71.9698   55.6675   41.5266 C   0  0  0  0  0  0  0  0  0  0  0  0
   69.9244   51.1741   44.8620 C   0  0  0  0  0  0  0  0  0  0  0  0
   70.7143   52.9117   46.2700 N   0  0  0  0  0  0  0  0  0  0  0  0
  1 15  1  0
  1 16  1  0
  2  7  1  0
  2  9  1  0
  3  8  1  0
  3 12  1  0
  3 13  2  0
  4 16  1  0
  5  7  1  0
  5 12  2  0
  6 10  2  0
  7 14  2  0
  9 10  1  0
  9 11  1  0
 10 16  1  0
 11 15  1  0
 13 14  1  0
M  END
$$$$
