
     RDKit          3D

 17 19  0  0  0  0  0  0  0  0999 V2000
   35.1700   53.9947   31.6899 C   0  0  0  0  0  0  0  0  0  0  0  0
   34.7851   56.5640   33.4075 N   0  0  0  0  0  0  0  0  0  0  0  0
   34.3807   54.9585   34.8258 N   0  0  0  0  0  0  0  0  0  0  0  0
   36.7743   53.7494   33.4349 C   0  0  0  0  0  0  0  0  0  0  0  0
   33.0211   61.1119   34.7200 C   0  0  0  0  0  0  0  0  0  0  0  0
   33.8289   56.0705   35.2974 C   0  0  0  0  0  0  0  0  0  0  0  0
   34.0858   57.1005   34.3802 C   0  0  0  0  0  0  0  0  0  0  0  0
   33.9193   60.7727   33.7790 C   0  0  0  0  0  0  0  0  0  0  0  0
   34.2560   59.4581   33.6563 C   0  0  0  0  0  0  0  0  0  0  0  0
   37.4273   52.8080   32.6938 C   0  0  0  0  0  0  0  0  0  0  0  0
   35.6497   54.3507   32.9359 C   0  0  0  0  0  0  0  0  0  0  0  0
   34.9468   55.2932   33.6863 N   0  0  0  0  0  0  0  0  0  0  0  0
   32.7999   58.9500   35.4043 C   0  0  0  0  0  0  0  0  0  0  0  0
   36.9516   52.4514   31.4553 C   0  0  0  0  0  0  0  0  0  0  0  0
   32.4728   60.2239   35.5149 N   0  0  0  0  0  0  0  0  0  0  0  0
   33.6856   58.5063   34.4663 C   0  0  0  0  0  0  0  0  0  0  0  0
   35.8232   53.0438   30.9556 C   0  0  0  0  0  0  0  0  0  0  0  0
  1 11  1  0
  1 17  2  0
  2  7  2  0
  2 12  1  0
  3  6  2  0
  3 12  1  0
  4 10  1  0
  4 11  2  0
  5  8  2  0
  5 15  1  0
  6  7  1  0
  7 16  1  0
  8  9  1  0
  9 16  2  0
 10 14  2  0
 11 12  1  0
 13 15  2  0
 13 16  1  0
 14 17  1  0
M  END
$$$$
