
     RDKit          3D

 18 20  0  0  0  0  0  0  0  0999 V2000
   32.7219   60.6743   35.3873 C   0  0  0  0  0  0  0  0  0  0  0  0
   33.7407   59.1280   34.2742 N   0  0  0  0  0  0  0  0  0  0  0  0
   35.1999   57.8069   32.8830 C   0  0  0  0  0  0  0  0  0  0  0  0
   34.2515   57.8925   33.8565 C   0  0  0  0  0  0  0  0  0  0  0  0
   35.8157   54.2101   32.7519 C   0  0  0  0  0  0  0  0  0  0  0  0
   35.1018   53.3408   31.9677 C   0  0  0  0  0  0  0  0  0  0  0  0
   37.5613   52.6577   33.0394 N   0  0  0  0  0  0  0  0  0  0  0  0
   34.1029   60.2783   33.7911 N   0  0  0  0  0  0  0  0  0  0  0  0
   33.4763   61.2439   34.4422 C   0  0  0  0  0  0  0  0  0  0  0  0
   35.6017   52.1242   31.6757 C   0  0  0  0  0  0  0  0  0  0  0  0
   36.8166   51.8025   32.2566 C   0  0  0  0  0  0  0  0  0  0  0  0
   34.2789   55.5581   34.0501 C   0  0  0  0  0  0  0  0  0  0  0  0
   34.9811   51.2436   30.9605 O   0  0  0  0  0  0  0  0  0  0  0  0
   35.6761   56.6124   32.5154 C   0  0  0  0  0  0  0  0  0  0  0  0
   36.9643   53.8213   33.3043 C   0  0  0  0  0  0  0  0  0  0  0  0
   35.2166   55.4986   33.0999 C   0  0  0  0  0  0  0  0  0  0  0  0
   32.8903   59.3447   35.2703 C   0  0  0  0  0  0  0  0  0  0  0  0
   33.7768   56.7734   34.4405 C   0  0  0  0  0  0  0  0  0  0  0  0
  1  9  1  0
  1 17  2  0
  2  4  1  0
  2  8  1  0
  2 17  1  0
  3  4  2  0
  3 14  1  0
  4 18  1  0
  5  6  1  0
  5 15  2  0
  5 16  1  0
  6 10  2  0
  7 11  2  0
  7 15  1  0
  8  9  2  0
 10 11  1  0
 10 13  1  0
 12 16  1  0
 12 18  2  0
 14 16  2  0
M  END
$$$$
