
     RDKit          3D

 15 16  0  0  0  0  0  0  0  0999 V2000
   36.4908   52.2609   31.5076 O   0  0  0  0  0  0  0  0  0  0  0  0
   36.8556   52.9615   32.4448 C   0  0  0  0  0  0  0  0  0  0  0  0
   35.5348   54.4801   33.8767 C   0  0  0  0  0  0  0  0  0  0  0  0
   33.0601   59.6485   35.0059 C   0  0  0  0  0  0  0  0  0  0  0  0
   34.4608   58.2120   33.6214 C   0  0  0  0  0  0  0  0  0  0  0  0
   35.6725   56.4748   32.0464 C   0  0  0  0  0  0  0  0  0  0  0  0
   33.4327   60.7601   34.3375 N   0  0  0  0  0  0  0  0  0  0  0  0
   37.7445   52.5435   33.2054 O   0  0  0  0  0  0  0  0  0  0  0  0
   34.3277   60.6388   33.3392 C   0  0  0  0  0  0  0  0  0  0  0  0
   33.5644   58.3640   34.6550 C   0  0  0  0  0  0  0  0  0  0  0  0
   34.8582   55.7072   34.1263 C   0  0  0  0  0  0  0  0  0  0  0  0
   36.3295   55.2805   31.6979 C   0  0  0  0  0  0  0  0  0  0  0  0
   34.8477   59.4074   32.9627 C   0  0  0  0  0  0  0  0  0  0  0  0
   35.0122   56.8156   33.2559 C   0  0  0  0  0  0  0  0  0  0  0  0
   36.2315   54.2632   32.6768 C   0  0  0  0  0  0  0  0  0  0  0  0
  1  2  2  0
  2  8  1  0
  2 15  1  0
  3 11  2  0
  3 15  1  0
  4  7  1  0
  4 10  2  0
  5 10  1  0
  5 13  2  0
  5 14  1  0
  6 12  1  0
  6 14  2  0
  7  9  2  0
  9 13  1  0
 11 14  1  0
 12 15  2  0
M  END
$$$$
