
     RDKit          3D

 25 27  0  0  0  0  0  0  0  0999 V2000
   35.1112   51.0514   32.6694 C   0  0  0  0  0  0  0  0  0  0  0  0
   34.1110   57.6447   33.9256 N   0  0  0  0  0  0  0  0  0  0  0  0
   31.7630   56.0409   36.3378 C   0  0  0  0  0  0  0  0  0  0  0  0
   31.2029   57.1606   36.9111 C   0  0  0  0  0  0  0  0  0  0  0  0
   31.5306   58.4178   36.4927 C   0  0  0  0  0  0  0  0  0  0  0  0
   35.8486   54.3665   33.5719 C   0  0  0  0  0  0  0  0  0  0  0  0
   37.7897   52.4340   32.5337 C   0  0  0  0  0  0  0  0  0  0  0  0
   32.5023   58.5511   35.5339 C   0  0  0  0  0  0  0  0  0  0  0  0
   34.4206   52.3091   30.6253 C   0  0  0  0  0  0  0  0  0  0  0  0
   33.7576   59.9805   34.2379 C   0  0  0  0  0  0  0  0  0  0  0  0
   34.9823   56.3490   31.9234 C   0  0  0  0  0  0  0  0  0  0  0  0
   36.0069   54.1733   32.2138 C   0  0  0  0  0  0  0  0  0  0  0  0
   32.8261   59.8309   35.1748 N   0  0  0  0  0  0  0  0  0  0  0  0
   35.6218   51.7239   31.3860 C   0  0  0  0  0  0  0  0  0  0  0  0
   35.3842   59.0591   32.7677 O   0  0  0  0  0  0  0  0  0  0  0  0
   36.2327   50.6162   30.5138 C   0  0  0  0  0  0  0  0  0  0  0  0
   33.0930   57.4204   34.9415 C   0  0  0  0  0  0  0  0  0  0  0  0
   34.1820   61.2892   34.0788 N   0  0  0  0  0  0  0  0  0  0  0  0
   38.9023   51.8946   31.7991 O   0  0  0  0  0  0  0  0  0  0  0  0
   36.6077   52.8766   31.6589 C   0  0  0  0  0  0  0  0  0  0  0  0
   35.5683   55.1989   31.3864 C   0  0  0  0  0  0  0  0  0  0  0  0
   32.6650   56.1675   35.3226 C   0  0  0  0  0  0  0  0  0  0  0  0
   34.8124   56.4632   33.2800 C   0  0  0  0  0  0  0  0  0  0  0  0
   35.2697   55.4771   34.1075 C   0  0  0  0  0  0  0  0  0  0  0  0
   34.4897   58.8963   33.5845 C   0  0  0  0  0  0  0  0  0  0  0  0
  1 14  1  0
  2 17  1  0
  2 23  1  0
  2 25  1  0
  3  4  2  0
  3 22  1  0
  4  5  1  0
  5  8  2  0
  6 12  1  0
  6 24  2  0
  7 19  1  0
  7 20  1  0
  8 13  1  0
  8 17  1  0
  9 14  1  0
 10 13  2  0
 10 18  1  0
 10 25  1  0
 11 21  1  0
 11 23  2  0
 12 20  1  0
 12 21  2  0
 14 16  1  0
 14 20  1  0
 15 25  2  0
 17 22  2  0
 23 24  1  0
M  END
$$$$
