
     RDKit          3D

 17 18  0  0  0  0  0  0  0  0999 V2000
   33.9952   58.3486   34.2627 C   0  0  0  0  0  0  0  0  0  0  0  0
   33.9754   60.6896   33.7260 N   0  0  0  0  0  0  0  0  0  0  0  0
   35.7654   55.5528   32.3041 C   0  0  0  0  0  0  0  0  0  0  0  0
   37.8223   52.6184   33.1994 O   0  0  0  0  0  0  0  0  0  0  0  0
   32.5272   59.8796   35.6061 C   0  0  0  0  0  0  0  0  0  0  0  0
   33.0072   58.5564   35.3616 C   0  0  0  0  0  0  0  0  0  0  0  0
   34.4277   59.3760   33.4879 N   0  0  0  0  0  0  0  0  0  0  0  0
   35.5200   52.0384   33.6814 O   0  0  0  0  0  0  0  0  0  0  0  0
   34.6520   54.5067   34.2987 C   0  0  0  0  0  0  0  0  0  0  0  0
   35.2910   56.8222   32.7709 C   0  0  0  0  0  0  0  0  0  0  0  0
   34.1663   55.8325   34.7150 C   0  0  0  0  0  0  0  0  0  0  0  0
   35.7851   52.9187   32.7006 C   0  0  0  0  0  0  0  0  0  0  0  0
   35.4075   54.3475   33.0855 C   0  0  0  0  0  0  0  0  0  0  0  0
   33.1179   60.8630   34.7218 C   0  0  0  0  0  0  0  0  0  0  0  0
   37.0582   52.5869   32.1593 C   0  0  0  0  0  0  0  0  0  0  0  0
   34.5123   56.9722   33.9440 C   0  0  0  0  0  0  0  0  0  0  0  0
   37.2765   52.1257   31.0659 O   0  0  0  0  0  0  0  0  0  0  0  0
  1  6  1  0
  1  7  2  0
  1 16  1  0
  2  7  1  0
  2 14  2  0
  3 10  2  0
  3 13  1  0
  4 15  1  0
  5  6  2  0
  5 14  1  0
  8 12  1  0
  9 11  1  0
  9 13  2  0
 10 16  1  0
 11 16  2  0
 12 13  1  0
 12 15  1  0
 15 17  2  0
M  END
$$$$
