
     RDKit          3D

 39 43  0  0  0  0  0  0  0  0999 V2000
   -9.3834   29.0950   -2.6015 F   0  0  0  0  0  0  0  0  0  0  0  0
   -9.8082   30.0968   -6.0078 O   0  0  0  0  0  0  0  0  0  0  0  0
   -5.0298   30.9022   -1.8992 N   0  0  0  0  0  0  0  0  0  0  0  0
   -5.3142   30.2151   -3.0792 C   0  0  0  0  0  0  0  0  0  0  0  0
   -2.9487   29.4905   -3.1856 C   0  0  0  0  0  0  0  0  0  0  0  0
   -5.1459   28.0744   -5.5689 C   0  0  0  0  0  0  0  0  0  0  0  0
   -9.9742   34.1694   -0.0682 O   0  0  0  0  0  0  0  0  0  0  0  0
  -11.4607   32.4134   -0.2696 N   0  0  0  0  0  0  0  0  0  0  0  0
   -8.9965   30.4081   -2.3980 C   0  0  0  0  0  0  0  0  0  0  0  0
   -0.8677   29.6420   -4.4957 C   0  0  0  0  0  0  0  0  0  0  0  0
  -12.1769   33.2008    0.7888 C   0  0  0  0  0  0  0  0  0  0  0  0
   -1.7583   28.6982   -3.6996 C   0  0  0  0  0  0  0  0  0  0  0  0
   -8.4082   33.0167   -2.0258 C   0  0  0  0  0  0  0  0  0  0  0  0
   -3.7245   30.9006   -1.3805 C   0  0  0  0  0  0  0  0  0  0  0  0
   -7.4491   29.2058   -6.0151 C   0  0  0  0  0  0  0  0  0  0  0  0
  -11.1576   29.7153   -5.7235 C   0  0  0  0  0  0  0  0  0  0  0  0
  -11.6397   28.4494   -6.4265 C   0  0  0  0  0  0  0  0  0  0  0  0
   -9.5784   32.4147   -1.4365 C   0  0  0  0  0  0  0  0  0  0  0  0
   -9.3019   27.9530   -7.0013 C   0  0  0  0  0  0  0  0  0  0  0  0
   -4.2348   29.5678   -3.7306 C   0  0  0  0  0  0  0  0  0  0  0  0
   -8.8671   29.0002   -6.1360 C   0  0  0  0  0  0  0  0  0  0  0  0
   -6.9305   30.2150   -5.0943 N   0  0  0  0  0  0  0  0  0  0  0  0
   -8.1583   34.2965   -2.0148 F   0  0  0  0  0  0  0  0  0  0  0  0
   -4.3211   29.0208   -5.0697 N   0  0  0  0  0  0  0  0  0  0  0  0
  -13.3746   32.9210    0.3601 N   0  0  0  0  0  0  0  0  0  0  0  0
  -11.7654   32.6651    2.1429 C   0  0  0  0  0  0  0  0  0  0  0  0
  -10.7278   27.9209   -7.4967 N   0  0  0  0  0  0  0  0  0  0  0  0
   -8.3700   26.8974   -7.3286 C   0  0  0  0  0  0  0  0  0  0  0  0
   -6.9646   26.9642   -6.8835 C   0  0  0  0  0  0  0  0  0  0  0  0
   -6.5155   28.0471   -6.0723 C   0  0  0  0  0  0  0  0  0  0  0  0
  -12.1102   34.6481    0.8179 C   0  0  0  0  0  0  0  0  0  0  0  0
   -4.4849   27.1056   -5.5758 O   0  0  0  0  0  0  0  0  0  0  0  0
   -6.7518   30.0693   -3.5927 C   0  0  0  0  0  0  0  0  0  0  0  0
   -7.7914   30.8783   -2.9168 C   0  0  0  0  0  0  0  0  0  0  0  0
   -7.5074   32.2049   -2.6652 C   0  0  0  0  0  0  0  0  0  0  0  0
  -10.3222   33.0926   -0.5274 C   0  0  0  0  0  0  0  0  0  0  0  0
   -2.6848   30.1704   -1.9937 N   0  0  0  0  0  0  0  0  0  0  0  0
   -9.9258   31.0629   -1.6830 C   0  0  0  0  0  0  0  0  0  0  0  0
   -3.3464   31.5800   -0.2522 N   0  0  0  0  0  0  0  0  0  0  0  0
  1  9  1  0
  2 16  1  0
  2 21  1  0
  3  4  2  0
  3 14  1  0
  4 20  1  0
  4 33  1  0
  5 12  1  0
  5 20  2  0
  5 37  1  0
  6 24  1  0
  6 30  1  0
  6 32  2  0
  7 36  2  0
  8 11  1  0
  8 36  1  0
  9 34  1  0
  9 38  2  0
 10 12  1  0
 11 25  1  0
 11 26  1  0
 11 31  1  0
 13 18  2  0
 13 23  1  0
 13 35  1  0
 14 37  2  0
 14 39  1  0
 15 21  1  0
 15 22  1  0
 15 30  2  0
 16 17  1  0
 17 27  1  0
 18 36  1  0
 18 38  1  0
 19 21  2  0
 19 27  1  0
 19 28  1  0
 20 24  1  0
 22 33  1  0
 28 29  2  0
 29 30  1  0
 33 34  1  0
 34 35  2  0
M  END
$$$$
