
     RDKit          3D

 36 43  0  0  0  0  0  0  0  0999 V2000
   -9.0091   31.9796   -1.5184 C   0  0  0  0  0  0  0  0  0  0  0  0
   -8.7783   35.2339   -1.4128 Cl  0  0  0  0  0  0  0  0  0  0  0  0
   -6.2253   27.6654   -6.5537 C   0  0  0  0  0  0  0  0  0  0  0  0
   -7.0687   28.7056   -4.6452 C   0  0  0  0  0  0  0  0  0  0  0  0
   -5.3325   31.3676   -1.9659 N   0  0  0  0  0  0  0  0  0  0  0  0
  -11.0540   34.6499   -0.0088 N   0  0  0  0  0  0  0  0  0  0  0  0
  -12.9697   34.2497    1.3955 C   0  0  0  0  0  0  0  0  0  0  0  0
   -3.5698   28.9031   -5.4430 C   0  0  0  0  0  0  0  0  0  0  0  0
  -10.2164   29.8873   -5.2481 C   0  0  0  0  0  0  0  0  0  0  0  0
   -3.1708   30.7285   -2.5653 C   0  0  0  0  0  0  0  0  0  0  0  0
   -3.2078   31.6345   -1.6419 N   0  0  0  0  0  0  0  0  0  0  0  0
   -4.5364   30.5377   -2.8185 C   0  0  0  0  0  0  0  0  0  0  0  0
  -10.0103   34.1311   -0.6975 C   0  0  0  0  0  0  0  0  0  0  0  0
   -9.4753   31.0983   -2.4586 C   0  0  0  0  0  0  0  0  0  0  0  0
   -5.9816   28.2333   -5.3085 C   0  0  0  0  0  0  0  0  0  0  0  0
  -10.8378   28.9054   -6.1258 C   0  0  0  0  0  0  0  0  0  0  0  0
  -11.6350   32.5100    0.6400 C   0  0  0  0  0  0  0  0  0  0  0  0
   -8.6467   30.3157   -3.2551 C   0  0  0  0  0  0  0  0  0  0  0  0
  -10.6521   31.9479   -0.0036 N   0  0  0  0  0  0  0  0  0  0  0  0
   -5.2217   29.6306   -3.7305 C   0  0  0  0  0  0  0  0  0  0  0  0
  -10.4314   31.0313   -5.2360 O   0  0  0  0  0  0  0  0  0  0  0  0
  -11.1576   29.6389   -7.2790 O   0  0  0  0  0  0  0  0  0  0  0  0
   -9.8610   32.7603   -0.6624 C   0  0  0  0  0  0  0  0  0  0  0  0
   -6.5926   29.5683   -3.7034 N   0  0  0  0  0  0  0  0  0  0  0  0
   -4.7131   33.0050   -0.3065 C   0  0  0  0  0  0  0  0  0  0  0  0
  -10.0143   27.7529   -6.3760 C   0  0  0  0  0  0  0  0  0  0  0  0
   -7.6676   32.0649   -1.2647 C   0  0  0  0  0  0  0  0  0  0  0  0
   -8.6397   27.8000   -6.0083 N   0  0  0  0  0  0  0  0  0  0  0  0
   -8.4130   28.2452   -4.5076 C   0  0  0  0  0  0  0  0  0  0  0  0
   -7.3311   30.5141   -2.9664 C   0  0  0  0  0  0  0  0  0  0  0  0
   -4.8007   28.6886   -4.5876 C   0  0  0  0  0  0  0  0  0  0  0  0
   -7.5091   27.4931   -6.9300 C   0  0  0  0  0  0  0  0  0  0  0  0
   -6.6581   31.3622   -2.0402 C   0  0  0  0  0  0  0  0  0  0  0  0
   -9.2494   29.4390   -4.3292 N   0  0  0  0  0  0  0  0  0  0  0  0
  -11.8412   33.7873    0.6649 C   0  0  0  0  0  0  0  0  0  0  0  0
   -4.4645   32.0007   -1.3009 C   0  0  0  0  0  0  0  0  0  0  0  0
  1 14  4  0
  1 23  1  0
  1 27  4  0
  2 13  1  0
  3 15  4  0
  3 32  4  0
  4 15  4  0
  4 24  4  0
  4 29  4  0
  5 12  4  0
  5 33  4  0
  5 36  4  0
  6 13  4  0
  6 35  4  0
  7 35  1  0
  8 31  1  0
  9 16  1  0
  9 21  2  0
  9 34  1  0
 10 11  4  0
 10 12  4  0
 11 36  4  0
 12 20  4  0
 13 23  4  0
 14 18  4  0
 15 31  1  0
 16 22  1  0
 16 26  2  0
 17 19  4  0
 17 35  4  0
 18 30  4  0
 18 34  1  0
 19 23  4  0
 20 24  4  0
 20 31  1  0
 24 30  4  0
 25 36  1  0
 26 28  1  0
 27 33  4  0
 28 29  1  0
 28 32  4  0
 29 34  1  0
 30 33  4  0
M  END
$$$$
