
     RDKit          3D

 27 30  0  0  0  0  0  0  0  0999 V2000
   13.5743    1.4243   21.9566 N   0  0  0  0  0  0  0  0  0  0  0  0
    5.9222    4.9346   25.7971 C   0  0  0  0  0  0  0  0  0  0  0  0
    8.5899    2.3563   26.4160 C   0  0  0  0  0  0  0  0  0  0  0  0
    3.0887    5.2378   25.0674 N   0  0  0  0  0  0  0  0  0  0  0  0
   10.5511    1.5341   25.2948 C   0  0  0  0  0  0  0  0  0  0  0  0
    7.1909    4.3637   25.8699 C   0  0  0  0  0  0  0  0  0  0  0  0
    1.7143    5.6367   25.0538 C   0  0  0  0  0  0  0  0  0  0  0  0
    6.1878    2.3343   26.6617 C   0  0  0  0  0  0  0  0  0  0  0  0
   -0.3958    5.5218   24.0047 C   0  0  0  0  0  0  0  0  0  0  0  0
    1.7841    7.1323   24.8600 C   0  0  0  0  0  0  0  0  0  0  0  0
   13.2661   -0.2338   23.6395 N   0  0  0  0  0  0  0  0  0  0  0  0
   11.3651    2.7639   25.1563 C   0  0  0  0  0  0  0  0  0  0  0  0
    3.4951    4.6879   26.1856 C   0  0  0  0  0  0  0  0  0  0  0  0
   -0.1986    6.9116   23.4864 N   0  0  0  0  0  0  0  0  0  0  0  0
   12.6887    3.2352   22.6175 C   0  0  0  0  0  0  0  0  0  0  0  0
    9.2332    2.0770   25.3039 N   0  0  0  0  0  0  0  0  0  0  0  0
   13.3616    2.6850   21.6785 C   0  0  0  0  0  0  0  0  0  0  0  0
    9.0568    2.0469   27.4806 O   0  0  0  0  0  0  0  0  0  0  0  0
    2.7172    4.4216   27.1007 O   0  0  0  0  0  0  0  0  0  0  0  0
    4.9667    2.9228   26.6197 C   0  0  0  0  0  0  0  0  0  0  0  0
    0.4796    7.7710   24.4877 C   0  0  0  0  0  0  0  0  0  0  0  0
    7.3247    3.0469   26.3281 C   0  0  0  0  0  0  0  0  0  0  0  0
   13.1217    1.0367   23.0161 C   0  0  0  0  0  0  0  0  0  0  0  0
    0.8874    4.7757   24.1221 C   0  0  0  0  0  0  0  0  0  0  0  0
   12.4645    2.1271   23.5855 C   0  0  0  0  0  0  0  0  0  0  0  0
   11.1173    1.8824   23.9978 C   0  0  0  0  0  0  0  0  0  0  0  0
    4.8125    4.2395   26.1695 C   0  0  0  0  0  0  0  0  0  0  0  0
  1 17  1  0
  1 23  2  0
  2  6  2  0
  2 27  1  0
  3 16  1  0
  3 18  2  0
  3 22  1  0
  4  7  1  0
  4 13  1  0
  5 12  1  0
  5 16  1  0
  5 26  1  0
  6 22  1  0
  7 10  1  0
  7 24  1  0
  8 20  1  0
  8 22  2  0
  9 14  1  0
  9 24  1  0
 10 21  1  0
 11 23  1  0
 12 26  1  0
 13 19  2  0
 13 27  1  0
 14 21  1  0
 15 17  2  0
 15 25  1  0
 20 27  2  0
 23 25  1  0
 25 26  1  0
M  END
$$$$
