
     RDKit          3D

 28 30  0  0  0  0  0  0  0  0999 V2000
   11.3754    3.1936   25.2026 C   0  0  0  0  0  0  0  0  0  0  0  0
   12.8662    1.2600   22.6434 C   0  0  0  0  0  0  0  0  0  0  0  0
    1.2718    5.7060   27.1425 S   0  0  0  0  0  0  0  0  0  0  0  0
   -0.3161    6.5428   23.6114 C   0  0  0  0  0  0  0  0  0  0  0  0
    2.1400    5.3357   25.7990 C   0  0  0  0  0  0  0  0  0  0  0  0
    3.3493    4.8676   25.6206 C   0  0  0  0  0  0  0  0  0  0  0  0
    9.4978    1.2623   24.8347 C   0  0  0  0  0  0  0  0  0  0  0  0
    7.1218    3.1808   24.7755 N   0  0  0  0  0  0  0  0  0  0  0  0
    7.9648    2.8803   25.6752 C   0  0  0  0  0  0  0  0  0  0  0  0
   11.7605    1.9742   24.6079 C   0  0  0  0  0  0  0  0  0  0  0  0
    7.5907    3.0130   26.8420 O   0  0  0  0  0  0  0  0  0  0  0  0
    1.5054    5.7064   24.8972 N   0  0  0  0  0  0  0  0  0  0  0  0
    5.5602    5.0150   24.6868 C   0  0  0  0  0  0  0  0  0  0  0  0
    4.9075    3.0230   25.8123 C   0  0  0  0  0  0  0  0  0  0  0  0
   12.8733    1.8033   24.1097 C   0  0  0  0  0  0  0  0  0  0  0  0
    5.8558    3.7189   25.0573 C   0  0  0  0  0  0  0  0  0  0  0  0
    4.3452    5.6244   24.9801 C   0  0  0  0  0  0  0  0  0  0  0  0
    3.6351    3.5642   26.0128 C   0  0  0  0  0  0  0  0  0  0  0  0
   13.6213    0.8775   24.8361 N   0  0  0  0  0  0  0  0  0  0  0  0
   12.6340    1.9536   20.3392 O   0  0  0  0  0  0  0  0  0  0  0  0
   14.1848    1.1039   22.0267 O   0  0  0  0  0  0  0  0  0  0  0  0
   10.0499    3.5304   25.6509 C   0  0  0  0  0  0  0  0  0  0  0  0
    0.3569    6.2318   24.8484 C   0  0  0  0  0  0  0  0  0  0  0  0
   14.1703    1.4409   26.1642 C   0  0  0  0  0  0  0  0  0  0  0  0
    9.1383    2.5134   25.3941 C   0  0  0  0  0  0  0  0  0  0  0  0
   -0.0183    6.3863   26.1972 C   0  0  0  0  0  0  0  0  0  0  0  0
   10.7779    0.9435   24.4732 C   0  0  0  0  0  0  0  0  0  0  0  0
   12.4803    2.2875   21.6560 C   0  0  0  0  0  0  0  0  0  0  0  0
  1 10  2  0
  1 22  1  0
  2 15  1  0
  2 21  1  0
  2 28  1  0
  3  5  1  0
  3 26  1  0
  4 23  1  0
  5  6  1  0
  5 12  2  0
  6 17  1  0
  6 18  2  0
  7 25  1  0
  7 27  2  0
  8  9  1  0
  8 16  1  0
  9 11  2  0
  9 25  1  0
 10 15  1  0
 10 27  1  0
 12 23  1  0
 13 16  1  0
 13 17  2  0
 14 16  2  0
 14 18  1  0
 15 19  1  0
 19 24  1  0
 20 28  1  0
 22 25  2  0
 23 26  2  0
M  END
$$$$
