
     RDKit          3D

 25 27  0  0  0  0  0  0  0  0999 V2000
   10.1311    1.0341   24.4231 C   0  0  0  0  0  0  0  0  0  0  0  0
    2.0119    5.6814   24.6978 N   0  0  0  0  0  0  0  0  0  0  0  0
    9.7212    3.7089   25.4488 C   0  0  0  0  0  0  0  0  0  0  0  0
    7.3683    3.3799   25.4176 C   0  0  0  0  0  0  0  0  0  0  0  0
   11.2003    1.8986   24.7551 C   0  0  0  0  0  0  0  0  0  0  0  0
   11.0113    3.2159   25.2779 C   0  0  0  0  0  0  0  0  0  0  0  0
   12.4226    1.2628   21.0848 O   0  0  0  0  0  0  0  0  0  0  0  0
   13.5476    2.6608   22.2575 O   0  0  0  0  0  0  0  0  0  0  0  0
    1.7849    7.2175   24.2099 S   0  0  0  0  0  0  0  0  0  0  0  0
    6.6919    3.9453   24.4526 O   0  0  0  0  0  0  0  0  0  0  0  0
    8.6498    2.8320   25.1793 C   0  0  0  0  0  0  0  0  0  0  0  0
   12.9753    1.5849   22.1841 C   0  0  0  0  0  0  0  0  0  0  0  0
    0.4759    7.2183   23.1155 C   0  0  0  0  0  0  0  0  0  0  0  0
    3.2622    4.9740   26.6588 C   0  0  0  0  0  0  0  0  0  0  0  0
    4.4202    4.3697   27.2765 C   0  0  0  0  0  0  0  0  0  0  0  0
   12.5332    1.4345   24.6309 O   0  0  0  0  0  0  0  0  0  0  0  0
    8.8285    1.5173   24.6533 C   0  0  0  0  0  0  0  0  0  0  0  0
    4.3461    4.9498   24.4732 C   0  0  0  0  0  0  0  0  0  0  0  0
    5.4760    4.0235   26.4075 C   0  0  0  0  0  0  0  0  0  0  0  0
   12.8524    0.6753   23.4723 C   0  0  0  0  0  0  0  0  0  0  0  0
    5.4728    4.3306   25.0047 C   0  0  0  0  0  0  0  0  0  0  0  0
    3.2185    5.2606   25.2840 C   0  0  0  0  0  0  0  0  0  0  0  0
    1.5258    7.9664   25.5164 O   0  0  0  0  0  0  0  0  0  0  0  0
   14.1503    0.0349   23.7806 N   0  0  0  0  0  0  0  0  0  0  0  0
    6.6757    3.3924   26.6484 N   0  0  0  0  0  0  0  0  0  0  0  0
  1  5  1  0
  1 17  2  0
  2  9  1  0
  2 22  1  0
  3  6  1  0
  3 11  2  0
  4 10  1  0
  4 11  1  0
  4 25  2  0
  5  6  2  0
  5 16  1  0
  7 12  1  0
  8 12  2  0
  9 13  1  0
  9 23  2  0
 10 21  1  0
 11 17  1  0
 12 20  1  0
 14 15  2  0
 14 22  1  0
 15 19  1  0
 16 20  1  0
 18 21  1  0
 18 22  2  0
 19 21  2  0
 19 25  1  0
 20 24  1  0
M  END
$$$$
