
     RDKit          3D

 31 33  0  0  0  0  0  0  0  0999 V2000
    8.6698   12.9379   14.5982 C   0  0  0  0  0  0  0  0  0  0  0  0
   15.2537   21.5761   12.6161 O   0  0  0  0  0  0  0  0  0  0  0  0
   12.5557   14.1818   13.4813 O   0  0  0  0  0  0  0  0  0  0  0  0
    7.6262   11.0928   13.6211 N   0  0  0  0  0  0  0  0  0  0  0  0
    6.8414   11.8120   15.7177 N   0  0  0  0  0  0  0  0  0  0  0  0
    9.6012   17.8213   15.3236 O   0  0  0  0  0  0  0  0  0  0  0  0
    7.7054   11.9502   14.6872 C   0  0  0  0  0  0  0  0  0  0  0  0
   12.4402   16.2652   12.1400 C   0  0  0  0  0  0  0  0  0  0  0  0
   10.3251   14.0949   13.7371 N   0  0  0  0  0  0  0  0  0  0  0  0
   14.0311   20.7265   13.2237 P   0  0  0  0  0  0  0  0  0  0  0  0
   13.8466   16.1333   14.1067 C   0  0  0  0  0  0  0  0  0  0  0  0
   14.5879   19.8929   14.4918 O   0  0  0  0  0  0  0  0  0  0  0  0
   11.3497   14.5588   10.3709 O   0  0  0  0  0  0  0  0  0  0  0  0
   14.5423   18.4118   16.2251 O   0  0  0  0  0  0  0  0  0  0  0  0
   12.9392   21.3289   13.9196 O   0  0  0  0  0  0  0  0  0  0  0  0
   13.3184   15.4740   13.1501 C   0  0  0  0  0  0  0  0  0  0  0  0
    9.5894   13.0253   13.5258 C   0  0  0  0  0  0  0  0  0  0  0  0
    9.9433   14.4961   14.9585 C   0  0  0  0  0  0  0  0  0  0  0  0
   14.1627   17.3193   13.9068 O   0  0  0  0  0  0  0  0  0  0  0  0
   11.0938   17.7777   15.9532 P   0  0  0  0  0  0  0  0  0  0  0  0
   13.7446   19.5647   12.2001 O   0  0  0  0  0  0  0  0  0  0  0  0
   11.4470   15.1237   11.7421 C   0  0  0  0  0  0  0  0  0  0  0  0
   11.3694   17.0834   16.5182 O   0  0  0  0  0  0  0  0  0  0  0  0
   13.2865   16.8745   11.0461 O   0  0  0  0  0  0  0  0  0  0  0  0
   12.1773   18.7131   14.6941 N   0  0  0  0  0  0  0  0  0  0  0  0
    9.4365   12.1271   12.4617 N   0  0  0  0  0  0  0  0  0  0  0  0
   13.9557   18.3940   14.9331 P   0  0  0  0  0  0  0  0  0  0  0  0
   11.3139   14.6639   12.8957 C   0  0  0  0  0  0  0  0  0  0  0  0
    9.0031   13.8935   15.4924 N   0  0  0  0  0  0  0  0  0  0  0  0
   11.1545   18.3980   17.2140 O   0  0  0  0  0  0  0  0  0  0  0  0
    8.4243   11.2156   12.5456 C   0  0  0  0  0  0  0  0  0  0  0  0
  1  7  2  0
  1 17  1  0
  1 29  1  0
  2 10  1  0
  3 16  1  0
  3 28  1  0
  4  7  1  0
  4 31  2  0
  5  7  1  0
  6 20  1  0
  8 16  1  0
  8 22  1  0
  8 24  1  0
  9 17  1  0
  9 18  1  0
  9 28  1  0
 10 12  1  0
 10 15  2  0
 10 21  1  0
 11 16  1  0
 11 19  1  0
 12 27  1  0
 13 22  1  0
 14 27  2  0
 17 26  2  0
 18 29  2  0
 19 27  1  0
 20 23  2  0
 20 25  1  0
 20 30  1  0
 22 28  1  0
 25 27  1  0
 26 31  1  0
M  END
$$$$
