
     RDKit          3D

 27 29  0  0  0  0  0  0  0  0999 V2000
  -17.2850   21.8471   70.3582 C   0  0  0  0  0  0  0  0  0  0  0  0
  -14.9636   22.7980   69.9284 C   0  0  0  0  0  0  0  0  0  0  0  0
  -20.2099   19.8417   70.4150 O   0  0  0  0  0  0  0  0  0  0  0  0
  -17.0595   21.9414   66.7993 C   0  0  0  0  0  0  0  0  0  0  0  0
  -17.2418   24.0689   65.8650 O   0  0  0  0  0  0  0  0  0  0  0  0
  -18.1433   20.8960   71.1612 C   0  0  0  0  0  0  0  0  0  0  0  0
  -16.9542   21.2279   69.0189 C   0  0  0  0  0  0  0  0  0  0  0  0
  -18.4211   20.8197   72.6834 C   0  0  0  0  0  0  0  0  0  0  0  0
  -15.6893   21.0880   74.4513 O   0  0  0  0  0  0  0  0  0  0  0  0
  -13.7337   24.6336   68.2330 N   0  0  0  0  0  0  0  0  0  0  0  0
  -18.2113   19.4612   73.2456 C   0  0  0  0  0  0  0  0  0  0  0  0
  -19.4329   18.7264   73.1982 O   0  0  0  0  0  0  0  0  0  0  0  0
  -18.1160   22.5693   64.7200 C   0  0  0  0  0  0  0  0  0  0  0  0
  -17.7031   20.5626   66.9140 C   0  0  0  0  0  0  0  0  0  0  0  0
  -16.9160   22.4683   68.1449 C   0  0  0  0  0  0  0  0  0  0  0  0
  -15.0056   24.1490   67.8341 C   0  0  0  0  0  0  0  0  0  0  0  0
  -16.8882   18.7970   75.1630 O   0  0  0  0  0  0  0  0  0  0  0  0
  -15.8225   21.8857   70.7745 C   0  0  0  0  0  0  0  0  0  0  0  0
  -19.5110   21.0249   70.4646 C   0  0  0  0  0  0  0  0  0  0  0  0
  -17.8849   22.9587   66.0977 C   0  0  0  0  0  0  0  0  0  0  0  0
  -17.0827   21.0595   74.5437 C   0  0  0  0  0  0  0  0  0  0  0  0
  -15.5325   22.9860   68.5589 C   0  0  0  0  0  0  0  0  0  0  0  0
  -17.6087   21.6669   73.4251 O   0  0  0  0  0  0  0  0  0  0  0  0
  -17.0924   22.5688   63.9014 O   0  0  0  0  0  0  0  0  0  0  0  0
  -17.9157   20.4493   68.2890 O   0  0  0  0  0  0  0  0  0  0  0  0
  -20.0381   22.2639   70.2232 O   0  0  0  0  0  0  0  0  0  0  0  0
  -17.7468   19.6804   74.5950 C   0  0  0  0  0  0  0  0  0  0  0  0
  1  6  1  0
  1  7  1  0
  1 18  1  0
  2 18  1  0
  2 22  1  0
  3 19  1  0
  4 14  1  0
  4 15  1  0
  4 20  1  0
  5 20  1  0
  6  8  1  0
  6 19  1  0
  7 15  1  0
  7 25  1  0
  8 11  1  0
  8 23  1  0
  9 21  1  0
 10 16  1  0
 11 12  1  0
 11 27  1  0
 13 20  1  0
 13 24  1  0
 14 25  1  0
 15 22  1  0
 16 22  1  0
 17 27  1  0
 19 26  1  0
 21 23  1  0
 21 27  1  0
M  END
$$$$
