
     RDKit          3D

  5  4  0  0  0  0  0  0  0  0999 V2000
  132.1646   51.5126   32.0799 O   0  0  0  0  0  0  0  0  0  0  0  0
  131.2820   52.2899   34.0152 O   0  0  0  0  0  0  0  0  0  0  0  0
  131.0851   52.2405   32.6208 C   0  0  0  0  0  0  0  0  0  0  0  0
  129.7749   51.5464   32.2613 C   0  0  0  0  0  0  0  0  0  0  0  0
  128.5597   52.2860   32.7979 C   0  0  0  0  0  0  0  0  0  0  0  0
  1  3  1  0
  2  3  1  0
  3  4  1  0
  4  5  1  0
M  END
$$$$
