
     RDKit          3D

  4  4  0  0  0  0  0  0  0  0999 V2000
  130.2392   52.5899   33.4743 O   0  0  0  0  0  0  0  0  0  0  0  0
  129.9985   52.0893   31.1349 O   0  0  0  0  0  0  0  0  0  0  0  0
  131.4984   52.0029   33.1207 C   0  0  0  0  0  0  0  0  0  0  0  0
  130.7050   52.8188   32.1417 C   0  0  2  0  0  0  0  0  0  0  0  0
  1  3  1  0
  1  4  1  0
  4  2  1  6
  3  4  1  0
M  END
$$$$
