
     RDKit          3D

 35 38  0  0  0  0  0  0  0  0999 V2000
   -0.6436    0.1290   -0.0041 C   0  0  1  0  0  0  0  0  0  0  0  0
   -2.2753   -1.6193    0.3197 O   0  0  0  0  0  0  0  0  0  0  0  0
   -5.0391    2.4670    1.0269 C   0  0  0  0  0  0  0  0  0  0  0  0
   -0.4731    1.5792   -0.4156 C   0  0  0  0  0  0  0  0  0  0  0  0
    2.6984    0.3671   -1.1820 C   0  0  0  0  0  0  0  0  0  0  0  0
    6.6051    1.6006    0.4090 C   0  0  0  0  0  0  0  0  0  0  0  0
    4.0720    1.3741    0.7229 C   0  0  1  0  0  0  0  0  0  0  0  0
    1.8088   -0.2709   -0.2492 N   0  0  0  0  0  0  0  0  0  0  0  0
    0.3304   -2.2588   -0.3728 C   0  0  0  0  0  0  0  0  0  0  0  0
   -0.4413   -5.2312   -0.2500 C   0  0  0  0  0  0  0  0  0  0  0  0
   -3.4118    0.7216    1.5024 C   0  0  0  0  0  0  0  0  0  0  0  0
   -0.3548    3.9094   -0.2514 C   0  0  0  0  0  0  0  0  0  0  0  0
   -6.2847    3.5836    2.7211 O   0  0  0  0  0  0  0  0  0  0  0  0
    5.4830    0.8692    1.1541 C   0  0  1  0  0  0  0  0  0  0  0  0
    3.8149    1.1249   -0.7032 N   0  0  0  0  0  0  0  0  0  0  0  0
   -4.7604    2.3305   -0.3432 C   0  0  0  0  0  0  0  0  0  0  0  0
   -0.8063   -2.9379   -1.1844 C   0  0  2  0  0  0  0  0  0  0  0  0
   -0.4133    2.1415   -2.0040 S   0  0  0  0  0  0  0  0  0  0  0  0
   -0.3219    3.7769   -1.6322 C   0  0  0  0  0  0  0  0  0  0  0  0
   -2.2184   -2.7223   -0.5613 C   0  0  0  0  0  0  0  0  0  0  0  0
   -3.8173    1.3994   -0.7861 C   0  0  0  0  0  0  0  0  0  0  0  0
   -6.0343    3.4581    1.4917 C   0  0  0  0  0  0  0  0  0  0  0  0
    2.2937   -0.4475    1.1230 C   0  0  0  0  0  0  0  0  0  0  0  0
   -6.7046    4.2631    0.5742 O   0  0  0  0  0  0  0  0  0  0  0  0
   -4.3553    1.6520    1.9456 C   0  0  0  0  0  0  0  0  0  0  0  0
    5.6571   -0.5753    0.9819 N   0  0  0  0  0  0  0  0  0  0  0  0
   -2.0687   -0.3843   -0.3464 C   0  0  1  0  0  0  0  0  0  0  0  0
    2.9325    0.8470    1.6335 C   0  0  0  0  0  0  0  0  0  0  0  0
   -0.4475    2.6895    0.4297 C   0  0  0  0  0  0  0  0  0  0  0  0
    0.4676   -0.7410   -0.6635 C   0  0  1  0  0  0  0  0  0  0  0  0
   -0.4843   -4.3681   -1.4464 N   0  0  0  0  0  0  0  0  0  0  0  0
   -0.5590    2.6098    2.1805 Cl  0  0  0  0  0  0  0  0  0  0  0  0
   -1.3543   -4.9555   -2.4788 C   0  0  0  0  0  0  0  0  0  0  0  0
    2.5045    0.2726   -2.4240 O   0  0  0  0  0  0  0  0  0  0  0  0
   -3.1348    0.5838    0.1317 C   0  0  0  0  0  0  0  0  0  0  0  0
  1  4  1  6
  1 27  1  0
  1 30  1  0
  2 20  1  0
  2 27  1  0
  3 16  1  0
  3 22  1  0
  3 25  2  0
  4 18  1  0
  4 29  2  0
  5  8  1  0
  5 15  1  0
  5 34  2  0
 14  6  1  6
  7 14  1  0
  7 15  1  0
  7 28  1  1
  8 23  1  0
 30  8  1  1
  9 17  1  0
  9 30  1  0
 10 31  1  0
 11 25  1  0
 11 35  2  0
 12 19  2  0
 12 29  1  0
 13 22  2  0
 14 26  1  0
 16 21  2  0
 17 20  1  0
 17 31  1  1
 18 19  1  0
 21 35  1  0
 22 24  1  0
 23 28  1  0
 27 35  1  1
 29 32  1  0
 31 33  1  0
M  END
