
     RDKit          3D

 37 39  0  0  0  0  0  0  0  0999 V2000
   -3.6933    0.7928   -0.0774 C   0  0  1  0  0  0  0  0  0  0  0  0
   -1.3850    0.5872   -0.4333 C   0  0  2  0  0  0  0  0  0  0  0  0
    8.1577    0.0059   -2.5243 O   0  0  0  0  0  0  0  0  0  0  0  0
    5.7219   -0.9282    1.3911 C   0  0  1  0  0  0  0  0  0  0  0  0
    1.2399   -1.2505   -0.1146 C   0  0  0  0  0  0  0  0  0  0  0  0
   -7.5497    0.0554   -0.3586 C   0  0  0  0  0  0  0  0  0  0  0  0
   -6.0013   -3.3351   -1.0196 O   0  0  0  0  0  0  0  0  0  0  0  0
    7.0332   -0.1998    1.7708 C   0  0  2  0  0  0  0  0  0  0  0  0
   -9.9282   -1.7706   -0.4337 C   0  0  0  0  0  0  0  0  0  0  0  0
   -8.3724   -3.4411    0.2215 O   0  0  0  0  0  0  0  0  0  0  0  0
    2.7679   -2.2076    1.4605 O   0  0  0  0  0  0  0  0  0  0  0  0
    4.0992   -2.1682   -0.9713 O   0  0  0  0  0  0  0  0  0  0  0  0
   -4.4984    2.7387    1.1364 O   0  0  0  0  0  0  0  0  0  0  0  0
   -6.2789    0.7274    0.1599 C   0  0  0  0  0  0  0  0  0  0  0  0
   -0.3699   -0.1120   -1.3551 C   0  0  0  0  0  0  0  0  0  0  0  0
   -7.3877   -1.4034   -0.3934 N   0  0  0  0  0  0  0  0  0  0  0  0
   -3.6070    2.3331    0.1298 C   0  0  1  0  0  0  0  0  0  0  0  0
   -6.1099   -1.9657   -0.7647 C   0  0  0  0  0  0  0  0  0  0  0  0
   -8.5319   -2.2628   -0.1979 C   0  0  0  0  0  0  0  0  0  0  0  0
    4.8863   -1.0016    2.5186 O   0  0  0  0  0  0  0  0  0  0  0  0
    8.3670   -1.1568    0.0032 O   0  0  0  0  0  0  0  0  0  0  0  0
    7.0139    0.7750   -0.5275 C   0  0  2  0  0  0  0  0  0  0  0  0
   -5.0516    0.3173   -0.6807 C   0  0  2  0  0  0  0  0  0  0  0  0
    7.8097    1.1490   -1.7869 C   0  0  0  0  0  0  0  0  0  0  0  0
   -2.1852    2.7460    0.5615 C   0  0  1  0  0  0  0  0  0  0  0  0
    7.8882    0.0599    0.5215 C   0  0  1  0  0  0  0  0  0  0  0  0
    7.7664   -0.9640    2.6938 O   0  0  0  0  0  0  0  0  0  0  0  0
    5.0168   -0.2099    0.1958 C   0  0  2  0  0  0  0  0  0  0  0  0
    0.9363   -0.0580   -0.8109 O   0  0  0  0  0  0  0  0  0  0  0  0
    3.7635   -0.9427   -0.3646 C   0  0  2  0  0  0  0  0  0  0  0  0
    5.9204   -0.0487   -0.8897 O   0  0  0  0  0  0  0  0  0  0  0  0
   -2.6736    0.3803   -0.9763 O   0  0  0  0  0  0  0  0  0  0  0  0
    2.5758   -1.0906    0.6297 C   0  0  1  0  0  0  0  0  0  0  0  0
   -1.1149    2.1016   -0.3337 C   0  0  1  0  0  0  0  0  0  0  0  0
   -5.0211   -1.1885   -0.8748 C   0  0  0  0  0  0  0  0  0  0  0  0
    0.1563    2.3261    0.2219 O   0  0  0  0  0  0  0  0  0  0  0  0
   -2.0758    4.1457    0.5044 O   0  0  0  0  0  0  0  0  0  0  0  0
  1 17  1  0
  1 23  1  0
  1 32  1  6
  2 15  1  6
  2 32  1  0
  2 34  1  0
  3 24  1  0
  4  8  1  0
  4 20  1  1
  4 28  1  0
  5 29  1  0
  5 33  1  0
  6 14  1  0
  6 16  1  0
  7 18  1  0
  8 26  1  0
  8 27  1  1
  9 19  1  0
 10 19  2  0
 33 11  1  1
 30 12  1  1
 17 13  1  1
 23 14  1  1
 15 29  1  0
 16 18  1  0
 16 19  1  0
 17 25  1  0
 18 35  2  0
 26 21  1  6
 22 24  1  6
 22 26  1  0
 22 31  1  0
 23 35  1  0
 25 34  1  0
 25 37  1  6
 28 30  1  0
 28 31  1  6
 30 33  1  0
 34 36  1  1
M  END
