
     RDKit          3D

 31 32  0  0  0  0  0  0  0  0999 V2000
   -3.7128    3.8754   -0.3052 N   0  0  0  0  0  0  0  0  0  0  0  0
   -2.2301    1.3533    1.1719 C   0  0  1  0  0  0  0  0  0  0  0  0
   -1.7259    2.4357    0.1903 C   0  0  0  0  0  0  0  0  0  0  0  0
   -2.4409    3.7741    0.4136 C   0  0  0  0  0  0  0  0  0  0  0  0
    2.7257    1.1830    1.5681 C   0  0  0  0  0  0  0  0  0  0  0  0
    2.3280    0.2557    0.4084 C   0  0  2  0  0  0  0  0  0  0  0  0
   -1.4513   -3.1484    0.6290 C   0  0  0  0  0  0  0  0  0  0  0  0
   -5.8081    3.3196   -1.1764 O   0  0  0  0  0  0  0  0  0  0  0  0
   -3.7808    1.2978    1.2585 C   0  0  0  0  0  0  0  0  0  0  0  0
   -1.5773   -0.0544    0.9815 C   0  0  1  0  0  0  0  0  0  0  0  0
    0.9937   -4.5265   -0.0092 O   0  0  0  0  0  0  0  0  0  0  0  0
   -2.0090   -0.8216   -0.2972 C   0  0  0  0  0  0  0  0  0  0  0  0
    0.4616    0.7129   -1.0075 O   0  0  0  0  0  0  0  0  0  0  0  0
   -4.4960    1.5243   -0.0829 C   0  0  0  0  0  0  0  0  0  0  0  0
    6.0444    0.8486   -0.7162 C   0  0  0  0  0  0  0  0  0  0  0  0
    0.8451    0.3542    0.1383 C   0  0  0  0  0  0  0  0  0  0  0  0
    2.7545   -1.2275    0.6105 C   0  0  1  0  0  0  0  0  0  0  0  0
    4.2684   -1.4645    0.4030 C   0  0  0  0  0  0  0  0  0  0  0  0
   -4.6383    2.9715   -0.4902 C   0  0  0  0  0  0  0  0  0  0  0  0
    4.8664   -1.4643   -3.1758 C   0  0  0  0  0  0  0  0  0  0  0  0
    4.6561   -1.2420   -0.9936 N   0  0  0  0  0  0  0  0  0  0  0  0
   -0.1152    0.0036    1.1545 N   0  0  0  0  0  0  0  0  0  0  0  0
    5.5665   -0.3588   -2.8504 N   0  0  0  0  0  0  0  0  0  0  0  0
   -0.6674   -4.7447    0.2383 P   0  0  0  0  0  0  0  0  0  0  0  0
   -1.2966   -5.3341   -1.0044 O   0  0  0  0  0  0  0  0  0  0  0  0
   -6.0723    4.6360   -1.6498 C   0  0  0  0  0  0  0  0  0  0  0  0
    2.3403   -1.7213    1.8614 O   0  0  0  0  0  0  0  0  0  0  0  0
   -1.2722   -2.1563   -0.5256 C   0  0  0  0  0  0  0  0  0  0  0  0
    5.4196   -0.2534   -1.5123 C   0  0  0  0  0  0  0  0  0  0  0  0
    4.3095   -2.0095   -2.0414 C   0  0  0  0  0  0  0  0  0  0  0  0
   -0.9016   -5.8016    1.5382 O   0  0  0  0  0  0  0  0  0  0  0  0
  1  4  1  0
  1 19  2  0
  2  3  1  6
  2  9  1  0
  2 10  1  0
  3  4  1  0
  6  5  1  1
  6 16  1  0
  6 17  1  0
  7 24  1  0
  7 28  1  0
  8 19  1  0
  8 26  1  0
  9 14  1  0
 10 12  1  6
 10 22  1  0
 11 24  1  0
 12 28  1  0
 13 16  2  0
 14 19  1  0
 15 29  1  0
 16 22  1  0
 17 18  1  0
 17 27  1  1
 18 21  1  0
 20 23  1  0
 20 30  2  0
 21 29  1  0
 21 30  1  0
 23 29  2  0
 24 25  2  0
 24 31  1  0
M  END
