
     RDKit          3D

 44 47  0  0  0  0  0  0  0  0999 V2000
   -1.4615   -0.2395    0.5093 N   0  0  0  0  0  0  0  0  0  0  0  0
   -2.5091   -2.5168    0.5626 N   0  0  0  0  0  0  0  0  0  0  0  0
    1.1168    0.3992    0.3556 N   0  0  0  0  0  0  0  0  0  0  0  0
    1.1362   -0.7755   -2.2375 C   0  0  1  0  0  0  0  0  0  0  0  0
   -1.8609    0.3751    1.7329 O   0  0  0  0  0  0  0  0  0  0  0  0
   -1.2296   -2.5710   -0.5988 O   0  0  0  0  0  0  0  0  0  0  0  0
   -0.2273   -0.4259   -1.6177 C   0  0  1  0  0  0  0  0  0  0  0  0
   -0.9551   -0.1407   -0.4785 C   0  0  2  0  0  0  0  0  0  0  0  0
   -4.5323    0.5720    0.7431 C   0  0  0  0  0  0  0  0  0  0  0  0
   -4.0803   -1.5533   -1.6200 O   0  0  0  0  0  0  0  0  0  0  0  0
    0.1499   -0.5748    0.3060 O   0  0  0  0  0  0  0  0  0  0  0  0
    4.5377   -0.4617    0.8542 C   0  0  0  0  0  0  0  0  0  0  0  0
   -5.2645    0.8604    1.9378 O   0  0  0  0  0  0  0  0  0  0  0  0
   -1.8139    1.1562    0.7037 C   0  0  0  0  0  0  0  0  0  0  0  0
    2.2538   -0.0269   -1.5013 C   0  0  0  0  0  0  0  0  0  0  0  0
   -2.4664   -1.2068    0.8433 C   0  0  0  0  0  0  0  0  0  0  0  0
   -1.2238   -1.2382   -2.1847 O   0  0  0  0  0  0  0  0  0  0  0  0
   -3.0328    1.5236    1.1792 C   0  0  0  0  0  0  0  0  0  0  0  0
   -4.0304    0.5204    1.4927 N   0  0  0  0  0  0  0  0  0  0  0  0
    3.0720    1.9380    0.5504 O   0  0  0  0  0  0  0  0  0  0  0  0
   -1.9634    0.6720    0.3581 C   0  0  1  0  0  0  0  0  0  0  0  0
   -4.4831   -1.9204    1.3255 N   0  0  0  0  0  0  0  0  0  0  0  0
    4.6390    0.0821    0.5786 C   0  0  0  0  0  0  0  0  0  0  0  0
    5.2438    1.8187    0.6552 O   0  0  0  0  0  0  0  0  0  0  0  0
    2.1497    0.1094   -0.6523 C   0  0  1  0  0  0  0  0  0  0  0  0
    3.3203   -1.3835    0.7352 C   0  0  0  0  0  0  0  0  0  0  0  0
   -3.5537    1.0385   -1.4117 O   0  0  0  0  0  0  0  0  0  0  0  0
    1.3756   -2.1594   -2.1596 O   0  0  0  0  0  0  0  0  0  0  0  0
   -3.7353   -2.9277    0.8747 N   0  0  0  0  0  0  0  0  0  0  0  0
    4.1062    0.9969    0.6874 C   0  0  1  0  0  0  0  0  0  0  0  0
   -3.3367    2.9110    1.3561 N   0  0  0  0  0  0  0  0  0  0  0  0
   -4.5038   -0.2802    1.8561 O   0  0  0  0  0  0  0  0  0  0  0  0
   -3.3468    0.3058   -0.2230 C   0  0  2  0  0  0  0  0  0  0  0  0
    3.2874    1.1578   -0.6056 C   0  0  1  0  0  0  0  0  0  0  0  0
   -3.1972   -1.1805   -0.5926 C   0  0  2  0  0  0  0  0  0  0  0  0
    3.1931    0.5645    0.8224 C   0  0  2  0  0  0  0  0  0  0  0  0
    2.6581   -1.2116   -0.5071 O   0  0  0  0  0  0  0  0  0  0  0  0
    2.1327   -0.2323    0.0275 C   0  0  1  0  0  0  0  0  0  0  0  0
    5.1464    0.5614   -0.6386 O   0  0  0  0  0  0  0  0  0  0  0  0
   -0.1739   -0.6211   -0.0860 C   0  0  1  0  0  0  0  0  0  0  0  0
   -3.6742   -0.8476    1.3105 C   0  0  0  0  0  0  0  0  0  0  0  0
   -1.7410   -1.3424   -1.0512 C   0  0  2  0  0  0  0  0  0  0  0  0
    0.8517    0.1821    0.4762 O   0  0  0  0  0  0  0  0  0  0  0  0
    4.1298    0.9944   -1.7189 O   0  0  0  0  0  0  0  0  0  0  0  0
  1 14  1  0
  1 16  1  0
 40  1  1  1
  2 16  1  0
  2 29  1  0
  3 11  1  0
 25  3  1  1
  4  7  1  0
  4 15  1  0
  4 28  1  1
 21  5  1  1
 42  6  1  1
  7 17  1  6
  7 40  1  0
  8 11  1  1
  8 21  1  0
  8 42  1  0
  9 32  1  0
  9 33  1  0
 35 10  1  6
 12 26  1  0
 12 30  1  0
 13 19  1  0
 14 18  2  0
 38 15  1  6
 16 41  2  0
 18 19  1  0
 18 31  1  0
 19 41  1  0
 36 20  1  6
 21 33  1  0
 22 29  2  0
 22 41  1  0
 23 36  1  0
 23 39  1  0
 30 24  1  6
 25 34  1  0
 25 37  1  0
 26 37  1  0
 33 27  1  6
 30 34  1  0
 33 35  1  0
 34 44  1  6
 35 42  1  0
 36 38  1  0
 38 43  1  0
 40 43  1  0
M  END
