
     RDKit          3D

 41 44  0  0  0  0  0  0  0  0999 V2000
   -0.3360   -1.8977   -0.9537 C   0  0  0  0  0  0  0  0  0  0  0  0
    5.5246    1.7346    0.7924 C   0  0  0  0  0  0  0  0  0  0  0  0
   -2.1261    0.4834   -0.0136 O   0  0  0  0  0  0  0  0  0  0  0  0
   -4.5550   -0.1714    0.9464 C   0  0  2  0  0  0  0  0  0  0  0  0
    1.9833   -0.3747   -0.3230 C   0  0  1  0  0  0  0  0  0  0  0  0
   -1.4343   -1.8248    0.2240 C   0  0  1  0  0  0  0  0  0  0  0  0
    4.3789    0.0778   -0.4446 O   0  0  0  0  0  0  0  0  0  0  0  0
   -3.9476   -1.2073   -0.0208 C   0  0  1  0  0  0  0  0  0  0  0  0
    3.0509    2.0638    2.3256 O   0  0  0  0  0  0  0  0  0  0  0  0
    0.7657    1.2679    1.3265 N   0  0  0  0  0  0  0  0  0  0  0  0
   -1.1387    1.7252   -0.9721 N   0  0  0  0  0  0  0  0  0  0  0  0
   -0.2025   -1.1389    0.4531 O   0  0  0  0  0  0  0  0  0  0  0  0
   -4.3691    1.2814    0.4274 C   0  0  1  0  0  0  0  0  0  0  0  0
    4.3997    0.7426    0.8059 C   0  0  2  0  0  0  0  0  0  0  0  0
   -1.9547    3.0962    0.8465 O   0  0  0  0  0  0  0  0  0  0  0  0
    0.8278   -0.9076    0.8028 C   0  0  0  0  0  0  0  0  0  0  0  0
    1.9079    0.4538    0.9783 C   0  0  0  0  0  0  0  0  0  0  0  0
    1.6364   -0.7998    1.8624 N   0  0  0  0  0  0  0  0  0  0  0  0
   -3.1011    1.4070   -0.4559 C   0  0  1  0  0  0  0  0  0  0  0  0
    1.5710    0.5332    2.1484 C   0  0  0  0  0  0  0  0  0  0  0  0
   -4.7426   -1.2761   -1.1775 O   0  0  0  0  0  0  0  0  0  0  0  0
   -0.5727    0.4666   -0.6001 C   0  0  0  0  0  0  0  0  0  0  0  0
    5.6598    2.6095   -0.2901 O   0  0  0  0  0  0  0  0  0  0  0  0
    0.4307   -1.7579   -1.8465 C   0  0  2  0  0  0  0  0  0  0  0  0
   -5.5085    1.7247   -0.2685 O   0  0  0  0  0  0  0  0  0  0  0  0
    3.4125   -0.9560   -0.4373 C   0  0  0  0  0  0  0  0  0  0  0  0
   -0.5352   -2.9611   -1.9026 C   0  0  2  0  0  0  0  0  0  0  0  0
   -2.4684   -0.8414   -0.4058 C   0  0  1  0  0  0  0  0  0  0  0  0
   -2.5039   -3.8017   -0.7599 O   0  0  0  0  0  0  0  0  0  0  0  0
   -3.9331   -0.3128    2.1998 O   0  0  0  0  0  0  0  0  0  0  0  0
    1.5311   -2.0058   -2.6821 O   0  0  0  0  0  0  0  0  0  0  0  0
    3.0576    1.4646    1.0547 C   0  0  1  0  0  0  0  0  0  0  0  0
    0.8933   -1.4978   -0.3866 C   0  0  1  0  0  0  0  0  0  0  0  0
    6.6870    3.5908   -0.3579 C   0  0  0  0  0  0  0  0  0  0  0  0
    0.5227   -2.0229    0.1051 N   0  0  0  0  0  0  0  0  0  0  0  0
   -1.4471   -2.7680   -2.9561 O   0  0  0  0  0  0  0  0  0  0  0  0
   -1.2695   -3.1624   -0.5572 C   0  0  2  0  0  0  0  0  0  0  0  0
   -2.5102    2.8226   -0.4142 C   0  0  0  0  0  0  0  0  0  0  0  0
   -0.8708   -0.6759   -1.2963 N   0  0  0  0  0  0  0  0  0  0  0  0
    0.2954    0.3497    0.4731 C   0  0  0  0  0  0  0  0  0  0  0  0
    6.3230    1.7919    1.7676 O   0  0  0  0  0  0  0  0  0  0  0  0
  1 35  2  0
  1 39  1  0
 14  2  1  6
  2 23  1  0
  2 41  2  0
  3 19  1  0
 28  3  1  1
  4  8  1  0
  4 13  1  0
  4 30  1  1
  5 17  1  1
  5 26  1  0
  5 33  1  0
  6 12  1  6
  6 28  1  0
  6 37  1  0
  7 14  1  0
  7 26  1  0
  8 21  1  6
  8 28  1  0
 32  9  1  1
 10 20  2  0
 10 40  1  0
 11 22  1  0
 33 12  1  1
 13 19  1  0
 13 25  1  6
 14 32  1  0
 15 38  1  0
 16 18  2  0
 16 35  1  0
 16 40  1  0
 17 32  1  0
 18 20  1  0
 19 38  1  1
 22 39  1  0
 22 40  2  0
 23 34  1  0
 24 27  1  0
 24 31  1  6
 24 33  1  0
 27 36  1  6
 27 37  1  0
 37 29  1  6
M  END
