
     RDKit          3D

 21 23  0  0  0  0  0  0  0  0999 V2000
   44.1380   12.6102   18.8539 C   0  0  0  0  0  0  0  0  0  0  0  0
   46.5813   13.2489   17.2049 N   0  0  0  0  0  0  0  0  0  0  0  0
   43.4578   12.4397   15.1283 C   0  0  0  0  0  0  0  0  0  0  0  0
   42.3991   12.7998   14.2967 C   0  0  0  0  0  0  0  0  0  0  0  0
   46.2212   10.9776   17.2082 O   0  0  0  0  0  0  0  0  0  0  0  0
   43.7513   12.1507   12.4277 N   0  0  0  0  0  0  0  0  0  0  0  0
   48.5552   12.9941   15.7809 C   0  0  0  0  0  0  0  0  0  0  0  0
   41.2200   13.2751   14.8198 N   0  0  0  0  0  0  0  0  0  0  0  0
   43.3069   12.6383   16.6131 C   0  0  0  0  0  0  0  0  0  0  0  0
   48.6371   13.9532   17.9214 O   0  0  0  0  0  0  0  0  0  0  0  0
   42.0659   13.1034   17.1097 C   0  0  0  0  0  0  0  0  0  0  0  0
   42.9388   13.0533   19.3031 C   0  0  0  0  0  0  0  0  0  0  0  0
   44.6866   11.7833   13.2543 C   0  0  0  0  0  0  0  0  0  0  0  0
   42.6848   12.5842   12.9725 C   0  0  0  0  0  0  0  0  0  0  0  0
   41.4549   13.1340   11.9138 Cl  0  0  0  0  0  0  0  0  0  0  0  0
   41.9299   13.3852   18.4436 C   0  0  0  0  0  0  0  0  0  0  0  0
   47.9539   13.4496   17.0474 C   0  0  0  0  0  0  0  0  0  0  0  0
   40.9534   13.5034   16.2280 C   0  0  0  0  0  0  0  0  0  0  0  0
   45.8137   12.0993   17.3007 C   0  0  0  0  0  0  0  0  0  0  0  0
   44.5839   11.9191   14.5939 C   0  0  0  0  0  0  0  0  0  0  0  0
   44.3995   12.3398   17.5298 C   0  0  0  0  0  0  0  0  0  0  0  0
  1 12  1  0
  1 21  2  0
  2 17  1  0
  2 19  1  0
  3  4  1  0
  3  9  1  0
  3 20  1  0
  4  8  2  0
  4 14  1  0
  5 19  2  0
  6 13  1  0
  6 14  2  0
  7 17  1  0
  8 18  1  0
  9 11  2  0
  9 21  1  0
 10 17  2  0
 11 16  1  0
 11 18  1  0
 12 16  2  0
 13 20  2  0
 14 15  1  0
 19 21  1  0
M  END
$$$$
