
     RDKit          3D

 21 23  0  0  0  0  0  0  0  0999 V2000
   41.6779   13.2190   13.0437 C   0  0  0  0  0  0  0  0  0  0  0  0
   42.4438   12.7898   15.4849 C   0  0  0  0  0  0  0  0  0  0  0  0
   43.5374   12.0233   13.3575 N   0  0  0  0  0  0  0  0  0  0  0  0
   44.6219   11.8006   15.7193 N   0  0  0  0  0  0  0  0  0  0  0  0
   46.7510   13.6658   19.0697 O   0  0  0  0  0  0  0  0  0  0  0  0
   42.2352   13.0020   18.3000 C   0  0  0  0  0  0  0  0  0  0  0  0
   41.1983   13.4453   17.4983 C   0  0  0  0  0  0  0  0  0  0  0  0
   43.5128   12.3308   16.2864 C   0  0  0  0  0  0  0  0  0  0  0  0
   45.8772   11.6008   16.4256 C   0  0  0  0  0  0  0  0  0  0  0  0
   47.8291   12.7515   17.1588 C   0  0  0  0  0  0  0  0  0  0  0  0
   48.2665   14.1803   17.1962 O   0  0  0  0  0  0  0  0  0  0  0  0
   42.5198   12.6888   14.0399 C   0  0  0  0  0  0  0  0  0  0  0  0
   46.9078   12.4300   18.3443 C   0  0  0  0  0  0  0  0  0  0  0  0
   42.1987   12.8271   11.8592 N   0  0  0  0  0  0  0  0  0  0  0  0
   47.0335   12.4690   15.9045 C   0  0  0  0  0  0  0  0  0  0  0  0
   40.5899   13.9593   13.2152 N   0  0  0  0  0  0  0  0  0  0  0  0
   46.5339   13.6338   15.2343 O   0  0  0  0  0  0  0  0  0  0  0  0
   43.2524   12.1440   12.1417 N   0  0  0  0  0  0  0  0  0  0  0  0
   45.6615   12.0513   17.9309 C   0  0  0  0  0  0  0  0  0  0  0  0
   41.3012   13.3335   16.1007 C   0  0  0  0  0  0  0  0  0  0  0  0
   43.3723   12.4567   17.6499 C   0  0  0  0  0  0  0  0  0  0  0  0
  1 12  1  0
  1 14  1  0
  1 16  1  0
  2  8  1  0
  2 12  1  0
  2 20  2  0
  3 12  1  0
  3 18  1  0
  4  8  1  0
  4  9  1  0
  5 13  1  0
  6  7  2  0
  6 21  1  0
  7 20  1  0
  8 21  2  0
  9 15  1  0
  9 19  1  0
 10 11  1  0
 10 13  1  0
 10 15  1  0
 13 19  1  0
 14 18  2  0
 15 17  1  0
M  END
$$$$
