
     RDKit          3D

 18 19  0  0  0  0  0  0  0  0999 V2000
   45.1884   12.2562   15.5626 C   0  0  0  0  0  0  0  0  0  0  0  0
   40.6738   14.1108   15.2090 C   0  0  0  0  0  0  0  0  0  0  0  0
   42.2557   13.1352   13.7493 C   0  0  0  0  0  0  0  0  0  0  0  0
   41.3950   13.5728   16.2567 C   0  0  0  0  0  0  0  0  0  0  0  0
   47.2862   13.0157   16.9911 C   0  0  0  0  0  0  0  0  0  0  0  0
   48.3581   13.4148   17.8059 C   0  0  0  0  0  0  0  0  0  0  0  0
   40.8821   13.8527   17.8339 Cl  0  0  0  0  0  0  0  0  0  0  0  0
   46.3299   12.1979   17.5435 C   0  0  0  0  0  0  0  0  0  0  0  0
   42.9739   12.5942   14.9146 C   0  0  0  0  0  0  0  0  0  0  0  0
   42.7226   12.9157   12.4979 F   0  0  0  0  0  0  0  0  0  0  0  0
   45.2637   11.8203   16.8175 N   0  0  0  0  0  0  0  0  0  0  0  0
   46.0786   13.0364   14.9432 N   0  0  0  0  0  0  0  0  0  0  0  0
   48.0716   14.2237   15.0505 N   0  0  0  0  0  0  0  0  0  0  0  0
   41.1126   13.8955   13.9115 C   0  0  0  0  0  0  0  0  0  0  0  0
   42.5123   12.8347   16.1510 N   0  0  0  0  0  0  0  0  0  0  0  0
   49.2534   13.7798   18.4805 N   0  0  0  0  0  0  0  0  0  0  0  0
   44.0969   11.8175   14.8115 N   0  0  0  0  0  0  0  0  0  0  0  0
   47.1409   13.4278   15.6589 C   0  0  0  0  0  0  0  0  0  0  0  0
  1 11  1  0
  1 12  2  0
  1 17  1  0
  2  4  1  0
  2 14  2  0
  3  9  2  0
  3 10  1  0
  3 14  1  0
  4  7  1  0
  4 15  2  0
  5  6  1  0
  5  8  1  0
  5 18  2  0
  6 16  3  0
  8 11  2  0
  9 15  1  0
  9 17  1  0
 12 18  1  0
 13 18  1  0
M  END
$$$$
