
     RDKit          3D

 19 21  0  0  0  0  0  0  0  0999 V2000
   40.5636   14.1279   15.9639 C   0  0  0  0  0  0  0  0  0  0  0  0
   47.9181   11.9699   16.9736 C   0  0  0  0  0  0  0  0  0  0  0  0
   42.5401   12.8999   16.2720 C   0  0  0  0  0  0  0  0  0  0  0  0
   41.7733   13.3580   14.0269 C   0  0  0  0  0  0  0  0  0  0  0  0
   44.4256   11.9811   15.8260 C   0  0  0  0  0  0  0  0  0  0  0  0
   43.6729   12.3789   16.8249 N   0  0  0  0  0  0  0  0  0  0  0  0
   43.8996   12.2181   14.6384 N   0  0  0  0  0  0  0  0  0  0  0  0
   40.6740   13.9691   14.6154 C   0  0  0  0  0  0  0  0  0  0  0  0
   41.2443   13.7333   18.5190 Cl  0  0  0  0  0  0  0  0  0  0  0  0
   48.4085   13.3461   16.5420 C   0  0  0  0  0  0  0  0  0  0  0  0
   41.9527   13.2749   12.3441 Cl  0  0  0  0  0  0  0  0  0  0  0  0
   42.7245   12.8237   14.8833 C   0  0  0  0  0  0  0  0  0  0  0  0
   47.9991   13.2106   18.9882 C   0  0  0  0  0  0  0  0  0  0  0  0
   48.4346   14.0272   17.8611 N   0  0  0  0  0  0  0  0  0  0  0  0
   45.9565   10.5496   15.3183 O   0  0  0  0  0  0  0  0  0  0  0  0
   48.1521   11.8280   18.4931 C   0  0  0  0  0  0  0  0  0  0  0  0
   41.4643   13.5690   16.8302 C   0  0  0  0  0  0  0  0  0  0  0  0
   45.7087   11.4596   15.9717 C   0  0  0  0  0  0  0  0  0  0  0  0
   46.4880   12.1845   16.7797 N   0  0  0  0  0  0  0  0  0  0  0  0
  1  8  2  0
  1 17  1  0
  2 10  1  0
  2 16  1  0
  2 19  1  0
  3  6  1  0
  3 12  1  0
  3 17  2  0
  4  8  1  0
  4 11  1  0
  4 12  2  0
  5  6  2  0
  5  7  1  0
  5 18  1  0
  7 12  1  0
  9 17  1  0
 10 14  1  0
 13 14  1  0
 13 16  1  0
 15 18  2  0
 18 19  1  0
M  END
$$$$
