
     RDKit          3D

 30 34  0  0  0  0  0  0  0  0999 V2000
   46.9270   12.7771   17.8675 C   0  0  0  0  0  0  0  0  0  0  0  0
   46.5998   10.5348   14.6144 N   0  0  0  0  0  0  0  0  0  0  0  0
   48.7233   13.7875   17.1422 C   0  0  0  0  0  0  0  0  0  0  0  0
   40.8610   13.7104   13.9905 N   0  0  0  0  0  0  0  0  0  0  0  0
   48.9904   12.7534   16.3048 C   0  0  0  0  0  0  0  0  0  0  0  0
   41.2226   13.9721   16.7492 C   0  0  0  0  0  0  0  0  0  0  0  0
   40.7587   13.6925   12.6728 C   0  0  0  0  0  0  0  0  0  0  0  0
   46.2211   10.5044   17.0310 C   0  0  0  0  0  0  0  0  0  0  0  0
   42.5611   13.4110   18.6322 C   0  0  0  0  0  0  0  0  0  0  0  0
   44.8810   11.8691   11.9080 C   0  0  0  0  0  0  0  0  0  0  0  0
   42.7589   12.7801   12.2713 C   0  0  0  0  0  0  0  0  0  0  0  0
   45.8221   12.9286   18.7810 N   0  0  0  0  0  0  0  0  0  0  0  0
   47.1068   11.6735   17.0551 C   0  0  0  0  0  0  0  0  0  0  0  0
   43.2330   12.7392   16.4666 C   0  0  0  0  0  0  0  0  0  0  0  0
   44.6893   12.0799   18.3772 C   0  0  0  0  0  0  0  0  0  0  0  0
   48.1703   11.6891   16.2406 N   0  0  0  0  0  0  0  0  0  0  0  0
   40.4594   14.6559   19.1668 Cl  0  0  0  0  0  0  0  0  0  0  0  0
   41.6311   13.2372   11.7713 N   0  0  0  0  0  0  0  0  0  0  0  0
   43.4494   12.7910   17.8277 C   0  0  0  0  0  0  0  0  0  0  0  0
   47.4367   11.5395   12.8684 O   0  0  0  0  0  0  0  0  0  0  0  0
   42.9780   12.7735   13.6443 C   0  0  0  0  0  0  0  0  0  0  0  0
   41.9707   13.2829   14.5165 C   0  0  0  0  0  0  0  0  0  0  0  0
   44.2272   12.2928   14.1065 C   0  0  0  0  0  0  0  0  0  0  0  0
   45.1634   11.8599   13.2155 C   0  0  0  0  0  0  0  0  0  0  0  0
   45.6651   10.2600   15.6594 C   0  0  0  0  0  0  0  0  0  0  0  0
   46.4723   11.3246   13.5756 C   0  0  0  0  0  0  0  0  0  0  0  0
   42.0889   13.2962   15.9595 C   0  0  0  0  0  0  0  0  0  0  0  0
   41.4613   13.9886   18.0967 C   0  0  0  0  0  0  0  0  0  0  0  0
   43.7434   12.3099   11.4981 N   0  0  0  0  0  0  0  0  0  0  0  0
   47.7286   13.6907   17.8237 C   0  0  0  0  0  0  0  0  0  0  0  0
  1 12  1  0
  1 13  1  0
  1 30  2  0
  2 25  1  0
  2 26  1  0
  3  5  2  0
  3 30  1  0
  4  7  1  0
  4 22  2  0
  5 16  1  0
  6 27  2  0
  6 28  1  0
  7 18  2  0
  8 13  1  0
  8 25  1  0
  9 19  1  0
  9 28  2  0
 10 24  2  0
 10 29  1  0
 11 18  1  0
 11 21  1  0
 11 29  2  0
 12 15  1  0
 13 16  2  0
 14 19  2  0
 14 27  1  0
 15 19  1  0
 17 28  1  0
 20 26  2  0
 21 22  1  0
 21 23  1  0
 22 27  1  0
 23 24  1  0
 24 26  1  0
M  END
$$$$
