
     RDKit          3D

 13 14  0  0  0  0  0  0  0  0999 V2000
   -2.7370   -0.6482   -0.9913 C   0  0  0  0  0  0  0  0  0  0  0  0
    1.6481    0.1440   -0.5050 C   0  0  0  0  0  0  0  0  0  0  0  0
   -1.3459   -0.6787   -0.8518 C   0  0  0  0  0  0  0  0  0  0  0  0
   -1.5322    0.5384    1.2365 C   0  0  0  0  0  0  0  0  0  0  0  0
    2.7127   -0.4450    1.3549 C   0  0  0  0  0  0  0  0  0  0  0  0
    4.1348    0.1302   -0.5686 O   0  0  0  0  0  0  0  0  0  0  0  0
    2.8994   -0.0489    0.0480 C   0  0  0  0  0  0  0  0  0  0  0  0
   -3.5247   -0.0232   -0.0210 C   0  0  0  0  0  0  0  0  0  0  0  0
    1.3892    0.6515   -1.8181 N   0  0  0  0  0  0  0  0  0  0  0  0
   -2.9229    0.5674    1.0934 C   0  0  0  0  0  0  0  0  0  0  0  0
    1.3434   -0.4736    1.5527 C   0  0  0  0  0  0  0  0  0  0  0  0
    0.6967   -0.1208    0.4191 N   0  0  0  0  0  0  0  0  0  0  0  0
   -0.7312   -0.0734    0.2577 C   0  0  0  0  0  0  0  0  0  0  0  0
  1  3  1  0
  1  8  2  0
  2  7  2  0
  2  9  1  0
  2 12  1  0
  3 13  2  0
  4 10  2  0
  4 13  1  0
  5  7  1  0
  5 11  2  0
  6  7  1  0
  8 10  1  0
 11 12  1  0
 12 13  1  0
M  END
