
     RDKit          3D

 19 21  0  0  0  0  0  0  0  0999 V2000
   -1.4145   -2.2386    0.0947 C   0  0  0  0  0  0  0  0  0  0  0  0
   -2.9224    2.4547    0.5236 N   0  0  0  0  0  0  0  0  0  0  0  0
    0.2483   -0.4839   -0.1447 C   0  0  0  0  0  0  0  0  0  0  0  0
   -2.0964    0.1013    0.2764 C   0  0  0  0  0  0  0  0  0  0  0  0
   -2.4185   -1.2803    0.2870 C   0  0  0  0  0  0  0  0  0  0  0  0
    2.4413   -0.7236   -1.3472 C   0  0  0  0  0  0  0  0  0  0  0  0
    3.7660   -0.3339   -1.5666 C   0  0  0  0  0  0  0  0  0  0  0  0
   -3.7429   -1.6877    0.4835 C   0  0  0  0  0  0  0  0  0  0  0  0
   -0.0944   -1.8443   -0.1160 C   0  0  0  0  0  0  0  0  0  0  0  0
    2.2267    0.9784    0.3655 C   0  0  0  0  0  0  0  0  0  0  0  0
    4.3239    0.7109   -0.8213 C   0  0  0  0  0  0  0  0  0  0  0  0
    3.5519    1.3657    0.1449 C   0  0  0  0  0  0  0  0  0  0  0  0
   -4.7348   -0.7294    0.6638 C   0  0  0  0  0  0  0  0  0  0  0  0
   -4.4167    0.5892    0.6607 N   0  0  0  0  0  0  0  0  0  0  0  0
    1.6561   -0.0710   -0.3787 C   0  0  0  0  0  0  0  0  0  0  0  0
    5.6881    1.1109   -1.0478 C   0  0  0  0  0  0  0  0  0  0  0  0
    6.7848    1.4324   -1.2299 N   0  0  0  0  0  0  0  0  0  0  0  0
   -0.7564    0.4824    0.0474 C   0  0  0  0  0  0  0  0  0  0  0  0
   -3.1443    1.0390    0.4820 C   0  0  0  0  0  0  0  0  0  0  0  0
  1  5  2  0
  1  9  1  0
  2 19  1  0
  3  9  2  0
  3 15  1  0
  3 18  1  0
  4  5  1  0
  4 18  2  0
  4 19  1  0
  5  8  1  0
  6  7  2  0
  6 15  1  0
  7 11  1  0
  8 13  2  0
 10 12  1  0
 10 15  2  0
 11 12  2  0
 11 16  1  0
 13 14  1  0
 14 19  2  0
 16 17  3  0
M  END
