
     RDKit          3D

 21 23  0  0  0  0  0  0  0  0999 V2000
    0.0520   -0.2785    0.9351 C   0  0  0  0  0  0  0  0  0  0  0  0
   -2.6013   -1.5892    0.5229 C   0  0  0  0  0  0  0  0  0  0  0  0
    5.2957   -0.3358   -1.0100 O   0  0  0  0  0  0  0  0  0  0  0  0
   -4.9860   -1.2883    0.2135 C   0  0  0  0  0  0  0  0  0  0  0  0
   -4.7889    0.0776   -0.0043 C   0  0  0  0  0  0  0  0  0  0  0  0
   -2.3936   -0.2111    0.3200 C   0  0  0  0  0  0  0  0  0  0  0  0
    4.8593    0.8064    1.5313 C   0  0  0  0  0  0  0  0  0  0  0  0
    3.7909    0.3403    0.6477 N   0  0  0  0  0  0  0  0  0  0  0  0
    4.0974   -0.2157   -0.6359 C   0  0  0  0  0  0  0  0  0  0  0  0
   -3.3048    1.9822   -0.1803 O   0  0  0  0  0  0  0  0  0  0  0  0
    2.9974   -0.6188   -1.5686 C   0  0  0  0  0  0  0  0  0  0  0  0
   -0.8942    1.6966   -0.3057 C   0  0  0  0  0  0  0  0  0  0  0  0
   -3.8942   -2.1200    0.4753 C   0  0  0  0  0  0  0  0  0  0  0  0
   -2.0540    2.6162    0.0855 C   0  0  0  0  0  0  0  0  0  0  0  0
   -1.0721    0.3749    0.3156 N   0  0  0  0  0  0  0  0  0  0  0  0
    2.4640    0.3204    1.1090 N   0  0  0  0  0  0  0  0  0  0  0  0
    0.5484   -1.4003   -1.7149 C   0  0  0  0  0  0  0  0  0  0  0  0
    1.3975   -0.2313    0.3234 C   0  0  0  0  0  0  0  0  0  0  0  0
   -0.0892   -0.8404    2.0544 O   0  0  0  0  0  0  0  0  0  0  0  0
   -3.4997    0.6166    0.0508 C   0  0  0  0  0  0  0  0  0  0  0  0
    1.6363   -0.7248   -0.9154 C   0  0  0  0  0  0  0  0  0  0  0  0
  1 15  1  0
  1 18  1  0
  1 19  2  0
  2  6  2  0
  2 13  1  0
  3  9  2  0
  4  5  1  0
  4 13  2  0
  5 20  2  0
  6 15  1  0
  6 20  1  0
  7  8  1  0
  8  9  1  0
  8 16  1  0
  9 11  1  0
 10 14  1  0
 10 20  1  0
 11 21  1  0
 12 14  1  0
 12 15  1  0
 16 18  1  0
 17 21  1  0
 18 21  2  0
M  END
