
     RDKit          3D

 12 13  0  0  0  0  0  0  0  0999 V2000
    0.6815    0.8093    0.0644 C   0  0  0  0  0  0  0  0  0  0  0  0
    2.7214   -0.4760   -0.1980 C   0  0  0  0  0  0  0  0  0  0  0  0
    0.5794   -1.6071   -0.1917 C   0  0  0  0  0  0  0  0  0  0  0  0
    2.0809    0.7500   -0.0234 C   0  0  0  0  0  0  0  0  0  0  0  0
   -2.0881    0.9109    0.2591 C   0  0  0  0  0  0  0  0  0  0  0  0
   -2.2802   -1.4406   -0.1485 N   0  0  0  0  0  0  0  0  0  0  0  0
   -1.4738   -0.2957    0.0313 N   0  0  0  0  0  0  0  0  0  0  0  0
   -1.3392    2.0820    0.3835 C   0  0  0  0  0  0  0  0  0  0  0  0
   -0.0972   -0.3738   -0.0434 C   0  0  0  0  0  0  0  0  0  0  0  0
    1.9739   -1.6501   -0.2741 C   0  0  0  0  0  0  0  0  0  0  0  0
    0.0439    2.0332    0.2738 C   0  0  0  0  0  0  0  0  0  0  0  0
   -3.3445    0.9840    0.3431 O   0  0  0  0  0  0  0  0  0  0  0  0
  1  4  2  0
  1  9  1  0
  1 11  1  0
  2  4  1  0
  2 10  2  0
  3  9  2  0
  3 10  1  0
  5  7  1  0
  5  8  1  0
  5 12  2  0
  6  7  1  0
  7  9  1  0
  8 11  2  0
M  END
