
     RDKit          3D

 12 13  0  0  0  0  0  0  0  0999 V2000
   -0.7252   -0.0438    0.0246 N   0  0  0  0  0  0  0  0  0  0  0  0
   -1.6795   -2.3717    0.1022 S   0  0  0  0  0  0  0  0  0  0  0  0
    0.3329   -0.8994    0.0469 C   0  0  0  0  0  0  0  0  0  0  0  0
    3.5087    0.8066   -0.0209 C   0  0  0  0  0  0  0  0  0  0  0  0
    2.1331    0.8952   -0.0175 C   0  0  0  0  0  0  0  0  0  0  0  0
   -1.9010   -0.7090    0.0507 C   0  0  0  0  0  0  0  0  0  0  0  0
   -3.2945    1.3261   -0.0074 C   0  0  0  0  0  0  0  0  0  0  0  0
   -0.0009   -2.2517    0.0910 C   0  0  0  0  0  0  0  0  0  0  0  0
    2.7794   -1.1942    0.0453 O   0  0  0  0  0  0  0  0  0  0  0  0
   -3.1506   -0.0877    0.0366 O   0  0  0  0  0  0  0  0  0  0  0  0
    3.8734   -0.4899    0.0183 N   0  0  0  0  0  0  0  0  0  0  0  0
    1.7205   -0.4193    0.0256 C   0  0  0  0  0  0  0  0  0  0  0  0
  1  3  1  0
  1  6  2  0
  2  6  1  0
  2  8  1  0
  3  8  2  0
  3 12  1  0
  4  5  1  0
  4 11  2  0
  5 12  2  0
  6 10  1  0
  7 10  1  0
  9 11  1  0
  9 12  1  0
M  END
