
     RDKit          3D

 15 15  0  0  0  0  0  0  0  0999 V2000
   38.5818   16.2201   38.0738 Cl  0  0  0  0  0  0  0  0  0  0  0  0
   37.5425   17.8917   36.3836 C   0  0  0  0  0  0  0  0  0  0  0  0
   32.1467   17.2813   34.9613 O   0  0  0  0  0  0  0  0  0  0  0  0
   36.7307   19.4399   34.7114 N   0  0  0  0  0  0  0  0  0  0  0  0
   30.6107   18.4440   36.0850 O   0  0  0  0  0  0  0  0  0  0  0  0
   34.9623   17.3635   37.2209 C   0  0  0  0  0  0  0  0  0  0  0  0
   36.4811   18.5205   35.7948 C   0  0  0  0  0  0  0  0  0  0  0  0
   35.1565   18.2890   36.1960 C   0  0  0  0  0  0  0  0  0  0  0  0
   37.3219   16.9944   37.3852 C   0  0  0  0  0  0  0  0  0  0  0  0
   36.0309   16.7391   37.7921 C   0  0  0  0  0  0  0  0  0  0  0  0
   36.1935   19.2147   33.6357 O   0  0  0  0  0  0  0  0  0  0  0  0
   37.5008   20.4242   34.9326 O   0  0  0  0  0  0  0  0  0  0  0  0
   34.1243   18.8984   35.5316 N   0  0  0  0  0  0  0  0  0  0  0  0
   32.9065   19.1179   36.2472 C   0  0  0  0  0  0  0  0  0  0  0  0
   31.8234   18.2117   35.7285 C   0  0  0  0  0  0  0  0  0  0  0  0
  1  9  1  0
  2  7  1  0
  2  9  2  0
  3 15  2  0
  4  7  1  0
  4 11  2  0
  4 12  1  0
  5 15  1  0
  6  8  1  0
  6 10  2  0
  7  8  2  0
  8 13  1  0
  9 10  1  0
 13 14  1  0
 14 15  1  0
M  CHG  2   4   1  12  -1
M  END
$$$$
