
     RDKit          3D

 25 29  0  0  0  0  0  0  0  0999 V2000
   38.8016   15.0705   39.3693 C   0  0  0  0  0  0  0  0  0  0  0  0
   37.1009   16.2321   37.9129 N   0  0  0  0  0  0  0  0  0  0  0  0
   37.5307   19.6728   36.7965 O   0  0  0  0  0  0  0  0  0  0  0  0
   34.7295   16.3846   37.6504 C   0  0  0  0  0  0  0  0  0  0  0  0
   32.0937   18.9703   34.9462 C   0  0  0  0  0  0  0  0  0  0  0  0
   38.2041   15.3661   37.9795 C   0  0  0  0  0  0  0  0  0  0  0  0
   32.7659   17.1096   37.2562 C   0  0  0  0  0  0  0  0  0  0  0  0
   36.0292   20.8720   33.8359 O   0  0  0  0  0  0  0  0  0  0  0  0
   33.6644   20.3108   36.1567 O   0  0  0  0  0  0  0  0  0  0  0  0
   31.9626   16.5542   36.1258 C   0  0  0  0  0  0  0  0  0  0  0  0
   35.9006   15.6812   38.0771 C   0  0  0  0  0  0  0  0  0  0  0  0
   34.8997   17.9273   37.3611 C   0  0  0  0  0  0  0  0  0  0  0  0
   37.3060   17.6039   37.7132 C   0  0  0  0  0  0  0  0  0  0  0  0
   38.2915   13.9648   36.9508 N   0  0  0  0  0  0  0  0  0  0  0  0
   33.4819   15.9718   37.6697 N   0  0  0  0  0  0  0  0  0  0  0  0
   36.6073   19.0875   35.9029 C   0  0  0  0  0  0  0  0  0  0  0  0
   36.3962   19.5269   33.5139 C   0  0  0  0  0  0  0  0  0  0  0  0
   33.8297   17.8419   36.4881 C   0  0  0  0  0  0  0  0  0  0  0  0
   35.8523   14.4877   38.6516 O   0  0  0  0  0  0  0  0  0  0  0  0
   33.6514   16.8218   35.3545 C   0  0  0  0  0  0  0  0  0  0  0  0
   30.8383   18.6682   35.3624 N   0  0  0  0  0  0  0  0  0  0  0  0
   37.3883   19.0777   34.6505 C   0  0  0  0  0  0  0  0  0  0  0  0
   33.2574   19.2147   35.8945 C   0  0  0  0  0  0  0  0  0  0  0  0
   31.7407   17.5490   35.0561 C   0  0  0  0  0  0  0  0  0  0  0  0
   36.2604   17.8508   36.5842 C   0  0  0  0  0  0  0  0  0  0  0  0
  1  6  1  0
  2  6  1  0
  2 11  1  0
  2 13  1  0
  3 16  1  0
  4 11  1  0
  4 12  1  0
  4 15  2  0
  5 21  1  0
  5 23  1  0
  5 24  1  0
  6 14  1  0
  7 10  1  0
  7 15  1  0
  7 18  1  0
  8 17  1  0
  9 23  2  0
 10 24  1  0
 11 19  2  0
 12 18  1  0
 12 25  1  0
 13 25  1  0
 16 22  1  0
 16 25  1  0
 17 22  1  0
 18 20  1  0
 18 23  1  0
 20 24  1  0
 21 24  1  0
M  END
$$$$
