
     RDKit          3D

 33 37  0  0  0  0  0  0  0  0999 V2000
   36.3485   13.9214   36.6465 C   0  0  0  0  0  0  0  0  0  0  0  0
   38.2211   16.7865   37.2495 C   0  0  0  0  0  0  0  0  0  0  0  0
   34.1782   14.9260   36.7657 C   0  0  0  0  0  0  0  0  0  0  0  0
   38.8763   15.7895   38.0016 N   0  0  0  0  0  0  0  0  0  0  0  0
   37.6718   18.1631   35.2738 C   0  0  0  0  0  0  0  0  0  0  0  0
   37.8713   18.4514   33.8098 C   0  0  0  0  0  0  0  0  0  0  0  0
   31.4113   18.4519   34.8124 C   0  0  0  0  0  0  0  0  0  0  0  0
   33.1921   18.1271   36.5627 C   0  0  0  0  0  0  0  0  0  0  0  0
   33.8669   14.3096   35.6082 C   0  0  0  0  0  0  0  0  0  0  0  0
   32.5934   18.7475   35.5438 C   0  0  0  0  0  0  0  0  0  0  0  0
   36.5038   20.6398   35.3392 O   0  0  0  0  0  0  0  0  0  0  0  0
   34.9579   21.6106   35.2477 O   0  0  0  0  0  0  0  0  0  0  0  0
   37.1757   19.2071   36.0729 C   0  0  0  0  0  0  0  0  0  0  0  0
   34.2783   18.8113   36.7544 C   0  0  0  0  0  0  0  0  0  0  0  0
   39.1784   13.7742   36.4401 O   0  0  0  0  0  0  0  0  0  0  0  0
   32.2729   15.5725   38.0090 N   0  0  0  0  0  0  0  0  0  0  0  0
   37.4379   17.6199   32.9234 O   0  0  0  0  0  0  0  0  0  0  0  0
   35.4502   14.7327   37.3489 C   0  0  0  0  0  0  0  0  0  0  0  0
   32.8382   16.8959   37.2792 N   0  0  0  0  0  0  0  0  0  0  0  0
   38.1352   14.5686   38.5192 C   0  0  0  0  0  0  0  0  0  0  0  0
   37.9473   12.0145   37.6960 O   0  0  0  0  0  0  0  0  0  0  0  0
   38.3603   19.5261   33.5340 O   0  0  0  0  0  0  0  0  0  0  0  0
   37.1956   18.9423   37.4020 C   0  0  0  0  0  0  0  0  0  0  0  0
   38.1668   16.9821   35.8462 C   0  0  0  0  0  0  0  0  0  0  0  0
   32.0011   16.7367   37.9157 N   0  0  0  0  0  0  0  0  0  0  0  0
   35.9568   13.3195   35.4743 C   0  0  0  0  0  0  0  0  0  0  0  0
   37.7539   17.8664   37.9923 C   0  0  0  0  0  0  0  0  0  0  0  0
   34.4610   19.6591   35.8127 N   0  0  0  0  0  0  0  0  0  0  0  0
   33.3268   19.6685   35.1621 N   0  0  0  0  0  0  0  0  0  0  0  0
   37.9161   13.4738   37.1209 S   0  0  0  0  0  0  0  0  0  0  0  0
   33.2269   15.6843   37.2734 C   0  0  0  0  0  0  0  0  0  0  0  0
   34.7339   13.5349   34.9448 C   0  0  0  0  0  0  0  0  0  0  0  0
   35.1238   20.6572   35.6203 C   0  0  0  0  0  0  0  0  0  0  0  0
  1 18  4  0
  1 26  4  0
  1 30  1  0
  2  4  1  0
  2 24  4  0
  2 27  4  0
  3  9  4  0
  3 18  4  0
  3 31  1  0
  4 20  1  0
  5  6  1  0
  5 13  4  0
  5 24  4  0
  6 17  1  0
  6 22  2  0
  7 10  1  0
  8 10  4  0
  8 14  4  0
  8 19  1  0
  9 32  4  0
 10 29  4  0
 11 13  1  0
 11 33  1  0
 12 33  2  0
 13 23  4  0
 14 28  4  0
 15 30  2  0
 16 25  4  0
 16 31  4  0
 19 25  4  0
 19 31  4  0
 20 30  1  0
 21 30  2  0
 23 27  4  0
 26 32  4  0
 28 29  4  0
 28 33  1  0
M  END
$$$$
