
     RDKit          3D

 26 28  0  0  0  0  0  0  0  0999 V2000
   32.8023   19.0549   37.2800 C   0  0  0  0  0  0  0  0  0  0  0  0
   37.5516   19.4694   36.0914 N   0  0  0  0  0  0  0  0  0  0  0  0
   33.7709   20.6881   35.6093 O   0  0  0  0  0  0  0  0  0  0  0  0
   31.9073   18.5367   34.4132 O   0  0  0  0  0  0  0  0  0  0  0  0
   34.3952   14.4019   37.0901 C   0  0  0  0  0  0  0  0  0  0  0  0
   36.5263   16.9556   36.4699 C   0  0  0  0  0  0  0  0  0  0  0  0
   32.9891   18.1666   35.2162 C   0  0  0  0  0  0  0  0  0  0  0  0
   31.6890   17.0799   38.1220 O   0  0  0  0  0  0  0  0  0  0  0  0
   33.2697   13.9068   37.1676 O   0  0  0  0  0  0  0  0  0  0  0  0
   32.6695   16.8917   36.0592 C   0  0  0  0  0  0  0  0  0  0  0  0
   37.0792   19.3436   33.6929 C   0  0  0  0  0  0  0  0  0  0  0  0
   37.0454   18.7661   35.0569 C   0  0  0  0  0  0  0  0  0  0  0  0
   33.6837   19.3052   36.1033 C   0  0  0  0  0  0  0  0  0  0  0  0
   35.9623   15.7655   36.8229 C   0  0  0  0  0  0  0  0  0  0  0  0
   33.7220   16.0829   35.5679 C   0  0  0  0  0  0  0  0  0  0  0  0
   37.5320   18.9388   37.3523 C   0  0  0  0  0  0  0  0  0  0  0  0
   37.0553   17.6873   37.5925 C   0  0  0  0  0  0  0  0  0  0  0  0
   36.5218   17.4594   35.1900 C   0  0  0  0  0  0  0  0  0  0  0  0
   35.5699   14.0393   37.7696 N   0  0  0  0  0  0  0  0  0  0  0  0
   37.9939   18.9561   32.8696 O   0  0  0  0  0  0  0  0  0  0  0  0
   34.6499   15.4777   36.4787 N   0  0  0  0  0  0  0  0  0  0  0  0
   36.5088   14.8757   37.6311 N   0  0  0  0  0  0  0  0  0  0  0  0
   36.1966   20.2197   33.2588 N   0  0  0  0  0  0  0  0  0  0  0  0
   35.7803   12.8409   38.5842 C   0  0  0  0  0  0  0  0  0  0  0  0
   32.8527   17.5264   37.4559 C   0  0  0  0  0  0  0  0  0  0  0  0
   33.2505   19.7842   38.4391 O   0  0  0  0  0  0  0  0  0  0  0  0
  1 13  1  0
  1 25  1  0
  1 26  1  0
  2 12  2  0
  2 16  1  0
  3 13  1  0
  4  7  1  0
  5  9  2  0
  5 19  1  0
  5 21  1  0
  6 14  1  0
  6 17  1  0
  6 18  2  0
  7 10  1  0
  7 13  1  0
  8 25  1  0
 10 15  1  0
 10 25  1  0
 11 12  1  0
 11 20  2  0
 11 23  1  0
 12 18  1  0
 14 21  1  0
 14 22  2  0
 15 21  1  0
 16 17  2  0
 19 22  1  0
 19 24  1  0
M  END
$$$$
