
     RDKit          3D

 22 22  0  0  0  0  0  0  0  0999 V2000
   37.5634   17.1426   37.5094 C   0  0  0  0  0  0  0  0  0  0  0  0
   34.2092   17.3972   37.5243 C   0  0  0  0  0  0  0  0  0  0  0  0
   37.1333   15.5041   39.2126 O   0  0  0  0  0  0  0  0  0  0  0  0
   37.1405   19.2546   33.7651 C   0  0  0  0  0  0  0  0  0  0  0  0
   33.5419   20.4934   35.8414 N   0  0  0  0  0  0  0  0  0  0  0  0
   36.1607   20.3899   33.6384 N   0  0  0  0  0  0  0  0  0  0  0  0
   33.1525   16.6582   37.1099 C   0  0  0  0  0  0  0  0  0  0  0  0
   34.2795   18.6812   37.1079 N   0  0  0  0  0  0  0  0  0  0  0  0
   38.8775   16.7913   39.5233 O   0  0  0  0  0  0  0  0  0  0  0  0
   36.7047   14.3423   35.3179 C   0  0  0  0  0  0  0  0  0  0  0  0
   37.2168   15.0406   36.3755 N   0  0  0  0  0  0  0  0  0  0  0  0
   35.5048   13.7990   35.2216 C   0  0  0  0  0  0  0  0  0  0  0  0
   37.2701   16.4353   36.3435 C   0  0  0  0  0  0  0  0  0  0  0  0
   37.6799   18.5206   37.4763 C   0  0  0  0  0  0  0  0  0  0  0  0
   37.8424   16.4228   38.8254 C   0  0  0  0  0  0  0  0  0  0  0  0
   37.2326   18.5236   35.1032 C   0  0  0  0  0  0  0  0  0  0  0  0
   37.5000   19.1953   36.2744 C   0  0  0  0  0  0  0  0  0  0  0  0
   37.1407   17.1348   35.1392 C   0  0  0  0  0  0  0  0  0  0  0  0
   33.4240   19.2639   36.2758 C   0  0  0  0  0  0  0  0  0  0  0  0
   32.3871   18.5189   35.7898 C   0  0  0  0  0  0  0  0  0  0  0  0
   31.4400   18.8644   34.8883 N   0  0  0  0  0  0  0  0  0  0  0  0
   32.2470   17.1783   36.2193 C   0  0  0  0  0  0  0  0  0  0  0  0
  1 13  2  0
  1 14  1  0
  1 15  1  0
  2  7  2  0
  2  8  1  0
  3 15  1  0
  4  6  1  0
  4 16  1  0
  5 19  1  0
  7 22  1  0
  8 19  2  0
  9 15  2  0
 10 11  1  0
 10 12  2  0
 11 13  1  0
 13 18  1  0
 14 17  2  0
 16 17  1  0
 16 18  2  0
 19 20  1  0
 20 21  1  0
 20 22  2  0
M  END
$$$$
