
     RDKit          3D

 29 30  0  0  0  0  0  0  0  0999 V2000
   36.7525   19.2116   36.8036 C   0  0  0  0  0  0  0  0  0  0  0  0
   37.8179   15.2932   34.2463 C   0  0  0  0  0  0  0  0  0  0  0  0
   37.1875   16.1142   35.1368 C   0  0  0  0  0  0  0  0  0  0  0  0
   39.0172   14.2275   35.9658 C   0  0  0  0  0  0  0  0  0  0  0  0
   38.8217   20.2318   36.1100 O   0  0  0  0  0  0  0  0  0  0  0  0
   33.6519   20.8285   36.3789 O   0  0  0  0  0  0  0  0  0  0  0  0
   34.0372   17.8237   37.6783 N   0  0  0  0  0  0  0  0  0  0  0  0
   35.5468   18.9529   36.2996 C   0  0  0  0  0  0  0  0  0  0  0  0
   34.2341   18.6763   36.8511 C   0  0  0  0  0  0  0  0  0  0  0  0
   35.3517   18.9837   34.8655 C   0  0  0  0  0  0  0  0  0  0  0  0
   39.0468   15.8784   38.8890 O   0  0  0  0  0  0  0  0  0  0  0  0
   37.6895   19.8653   35.8209 C   0  0  0  0  0  0  0  0  0  0  0  0
   31.9375   19.2600   35.8756 C   0  0  0  0  0  0  0  0  0  0  0  0
   33.9500   14.2905   38.3623 C   0  0  0  0  0  0  0  0  0  0  0  0
   31.9410   18.2950   34.7864 N   0  0  0  0  0  0  0  0  0  0  0  0
   38.7249   14.3496   34.6310 C   0  0  0  0  0  0  0  0  0  0  0  0
   33.8943   13.7816   37.1082 C   0  0  0  0  0  0  0  0  0  0  0  0
   34.0144   15.6342   38.5060 C   0  0  0  0  0  0  0  0  0  0  0  0
   37.4155   20.1830   34.4852 N   0  0  0  0  0  0  0  0  0  0  0  0
   33.3296   19.6889   36.2581 C   0  0  0  0  0  0  0  0  0  0  0  0
   33.9897   16.4466   37.4177 C   0  0  0  0  0  0  0  0  0  0  0  0
   37.4832   15.9991   36.4735 C   0  0  0  0  0  0  0  0  0  0  0  0
   38.7604   14.8775   38.1845 N   0  0  0  0  0  0  0  0  0  0  0  0
   33.9447   15.8967   36.1532 C   0  0  0  0  0  0  0  0  0  0  0  0
   38.9022   13.7787   38.6986 O   0  0  0  0  0  0  0  0  0  0  0  0
   36.0780   19.8795   33.9991 C   0  0  0  0  0  0  0  0  0  0  0  0
   37.2768   18.9474   38.1779 C   0  0  0  0  0  0  0  0  0  0  0  0
   33.8874   14.5564   36.0026 C   0  0  0  0  0  0  0  0  0  0  0  0
   38.3882   15.0591   36.8715 C   0  0  0  0  0  0  0  0  0  0  0  0
  1  8  2  0
  1 12  1  0
  1 27  1  0
  2  3  2  0
  2 16  1  0
  3 22  1  0
  4 16  2  0
  4 29  1  0
  5 12  2  0
  6 20  2  0
  7  9  1  0
  7 21  1  0
  8  9  1  0
  8 10  1  0
  9 20  1  0
 10 26  1  0
 11 23  2  0
 12 19  1  0
 13 15  1  0
 13 20  1  0
 14 17  2  0
 14 18  1  0
 17 28  1  0
 18 21  2  0
 19 26  1  0
 21 24  1  0
 22 29  2  0
 23 25  1  0
 23 29  1  0
 24 28  2  0
M  CHG  2  23   1  25  -1
M  END
$$$$
