
     RDKit          3D

 31 35  0  0  0  0  0  0  0  0999 V2000
   32.6267   30.0318   -1.9175 C   0  0  0  0  0  0  0  0  0  0  0  0
   32.6113   29.3933   -3.1719 N   0  0  0  0  0  0  0  0  0  0  0  0
   34.5128   20.9101    1.9893 C   0  0  0  0  0  0  0  0  0  0  0  0
   33.4978   28.0500   -0.3792 C   0  0  0  0  0  0  0  0  0  0  0  0
   33.7111   28.0326    0.9666 C   0  0  0  0  0  0  0  0  0  0  0  0
   31.9504   32.0881   -3.1449 C   0  0  0  0  0  0  0  0  0  0  0  0
   31.0761   30.8349   -6.5547 N   0  0  0  0  0  0  0  0  0  0  0  0
   32.3201   30.0478   -4.2938 C   0  0  0  0  0  0  0  0  0  0  0  0
   30.9690   33.2746   -5.9234 C   0  0  0  0  0  0  0  0  0  0  0  0
   34.4645   24.7346   -0.6034 N   0  0  0  0  0  0  0  0  0  0  0  0
   34.3278   22.3704    0.2070 C   0  0  0  0  0  0  0  0  0  0  0  0
   33.4101   29.2553    1.4942 N   0  0  0  0  0  0  0  0  0  0  0  0
   32.2385   32.0732   -0.6462 C   0  0  0  0  0  0  0  0  0  0  0  0
   35.1598   21.7719   -0.4658 O   0  0  0  0  0  0  0  0  0  0  0  0
   32.1016   29.7719   -6.8118 C   0  0  0  0  0  0  0  0  0  0  0  0
   32.2603   31.4027   -1.8702 C   0  0  0  0  0  0  0  0  0  0  0  0
   33.8030   23.7197   -0.1680 C   0  0  0  0  0  0  0  0  0  0  0  0
   32.4056   24.0424   -0.0425 C   0  0  0  0  0  0  0  0  0  0  0  0
   32.3132   25.3286   -0.4759 C   0  0  0  0  0  0  0  0  0  0  0  0
   33.7751   21.8989    1.3105 O   0  0  0  0  0  0  0  0  0  0  0  0
   33.0010   30.0752    0.5195 C   0  0  0  0  0  0  0  0  0  0  0  0
   32.6018   31.4079    0.4946 C   0  0  0  0  0  0  0  0  0  0  0  0
   30.5650   31.3309   -7.8509 C   0  0  0  0  0  0  0  0  0  0  0  0
   33.5144   25.7856   -0.8159 N   0  0  0  0  0  0  0  0  0  0  0  0
   33.0390   29.3610   -0.7335 C   0  0  0  0  0  0  0  0  0  0  0  0
   33.7668   26.9097   -1.3005 C   0  0  0  0  0  0  0  0  0  0  0  0
   32.3239   29.1151   -5.4604 C   0  0  1  0  0  0  0  0  0  0  0  0
   33.5657   29.5097    2.9003 C   0  0  0  0  0  0  0  0  0  0  0  0
   32.0027   31.3880   -4.3360 C   0  0  0  0  0  0  0  0  0  0  0  0
   33.8955   28.5051   -5.2650 C   0  0  0  0  0  0  0  0  0  0  0  0
   31.8540   32.0025   -5.8113 C   0  0  1  0  0  0  0  0  0  0  0  0
  1  2  2  0
  1 16  1  0
  1 25  1  0
  2  8  1  0
  3 20  1  0
  4  5  2  0
  4 25  1  0
  4 26  1  0
  5 12  1  0
  6 16  2  0
  6 29  1  0
  7 15  1  0
  7 23  1  0
  7 31  1  0
  8 27  1  0
  8 29  2  0
 31  9  1  1
 10 17  2  0
 10 24  1  0
 11 14  2  0
 11 17  1  0
 11 20  1  0
 12 21  1  0
 12 28  1  0
 13 16  1  0
 13 22  2  0
 15 27  1  0
 17 18  1  0
 18 19  2  0
 19 24  1  0
 21 22  1  0
 21 25  2  0
 24 26  1  0
 27 30  1  6
 29 31  1  0
M  END
