
     RDKit          3D

 27 30  0  0  0  0  0  0  0  0999 V2000
   64.0263   99.2961   26.9336 C   0  0  0  0  0  0  0  0  0  0  0  0
   62.2334   98.1744   32.3088 C   0  0  0  0  0  0  0  0  0  0  0  0
   64.9402   96.4701   28.8863 C   0  0  0  0  0  0  0  0  0  0  0  0
   61.8571   98.9897   27.5065 C   0  0  0  0  0  0  0  0  0  0  0  0
   60.9560   96.8236   30.7628 O   0  0  0  0  0  0  0  0  0  0  0  0
   66.3628   98.4481   29.1192 C   0  0  0  0  0  0  0  0  0  0  0  0
   63.0093   99.3707   32.5034 C   0  0  0  0  0  0  0  0  0  0  0  0
   65.7421   95.4231   29.1258 C   0  0  0  0  0  0  0  0  0  0  0  0
   62.6581   98.4554   28.6335 C   0  0  0  0  0  0  0  0  0  0  0  0
   69.3500   96.2732   29.4355 F   0  0  0  0  0  0  0  0  0  0  0  0
   67.0790   95.3837   29.2815 C   0  0  0  0  0  0  0  0  0  0  0  0
   61.5257   97.8176   26.7533 O   0  0  0  0  0  0  0  0  0  0  0  0
   62.7238   99.9976   26.7535 C   0  0  0  0  0  0  0  0  0  0  0  0
   67.9654   96.5094   29.3363 C   0  0  0  0  0  0  0  0  0  0  0  0
   62.4434   97.4948   34.5383 C   0  0  0  0  0  0  0  0  0  0  0  0
   64.6740  100.1567   29.0640 C   0  0  0  0  0  0  0  0  0  0  0  0
   66.2818   99.9367   29.1760 C   0  0  0  0  0  0  0  0  0  0  0  0
   62.2857  100.1449   25.4424 O   0  0  0  0  0  0  0  0  0  0  0  0
   61.3318   99.8866   29.8934 O   0  0  0  0  0  0  0  0  0  0  0  0
   64.1051   98.9345   28.4007 C   0  0  0  0  0  0  0  0  0  0  0  0
   65.1122   97.8683   28.8264 C   0  0  0  0  0  0  0  0  0  0  0  0
   63.2132   98.6625   34.7612 C   0  0  0  0  0  0  0  0  0  0  0  0
   61.6324   97.8650   30.9100 C   0  0  0  0  0  0  0  0  0  0  0  0
   61.9618   97.2947   33.2598 C   0  0  0  0  0  0  0  0  0  0  0  0
   67.5937   97.8184   29.3517 C   0  0  0  0  0  0  0  0  0  0  0  0
   63.4821   99.5910   33.7469 C   0  0  0  0  0  0  0  0  0  0  0  0
   61.8527   98.8145   29.8289 C   0  0  0  0  0  0  0  0  0  0  0  0
  1 13  1  0
  1 20  1  0
  2  7  4  0
  2 23  1  0
  2 24  4  0
  3  8  4  0
  3 21  4  0
  4  9  1  0
  4 12  1  0
  4 13  1  0
  5 23  2  0
  6 17  1  0
  6 21  4  0
  6 25  4  0
  7 26  4  0
  8 11  4  0
  9 20  1  0
  9 27  1  0
 10 14  1  0
 11 14  4  0
 13 18  1  0
 14 25  4  0
 15 22  4  0
 15 24  4  0
 16 17  1  0
 16 20  1  0
 19 27  2  0
 20 21  1  0
 22 26  4  0
 23 27  1  0
M  END
$$$$
