
     RDKit          3D

 22 25  0  0  0  0  0  0  0  0999 V2000
    1.6504   -0.6782   -1.5180 N   0  0  0  0  0  0  0  0  0  0  0  0
    2.6732    0.0169   -0.9897 C   0  0  0  0  0  0  0  0  0  0  0  0
    1.0573    0.1812    0.4982 N   0  0  0  0  0  0  0  0  0  0  0  0
   -2.0842   -0.1110    1.8308 C   0  0  0  0  0  0  0  0  0  0  0  0
   -4.7702    0.4727    1.4278 C   0  0  0  0  0  0  0  0  0  0  0  0
    0.2605    0.5275    1.6407 C   0  0  0  0  0  0  0  0  0  0  0  0
   -1.7110   -0.0594   -0.6291 N   0  0  0  0  0  0  0  0  0  0  0  0
    3.2228    1.2921    0.9848 C   0  0  0  0  0  0  0  0  0  0  0  0
   -0.7315   -1.0266   -3.1603 O   0  0  0  0  0  0  0  0  0  0  0  0
    4.8644    0.9698   -0.8026 C   0  0  0  0  0  0  0  0  0  0  0  0
    0.4432    1.6225    2.2358 O   0  0  0  0  0  0  0  0  0  0  0  0
    2.3230    0.5424    0.2208 C   0  0  0  0  0  0  0  0  0  0  0  0
   -3.9115    0.4166    0.3284 C   0  0  0  0  0  0  0  0  0  0  0  0
   -0.8994   -1.8883   -2.0670 C   0  0  0  0  0  0  0  0  0  0  0  0
   -2.5622    0.0928    0.5183 C   0  0  0  0  0  0  0  0  0  0  0  0
   -0.7325   -0.3400    2.0960 O   0  0  0  0  0  0  0  0  0  0  0  0
   -0.7141   -1.1307   -0.7418 C   0  0  1  0  0  0  0  0  0  0  0  0
    4.5090    1.5064    0.4552 C   0  0  0  0  0  0  0  0  0  0  0  0
    0.6722   -0.5538   -0.5798 C   0  0  0  0  0  0  0  0  0  0  0  0
   -4.2974    0.2178    2.6758 N   0  0  0  0  0  0  0  0  0  0  0  0
   -2.9889   -0.0760    2.8967 C   0  0  0  0  0  0  0  0  0  0  0  0
    3.9377    0.2106   -1.5404 C   0  0  0  0  0  0  0  0  0  0  0  0
  1  2  1  0
  1 19  2  0
  2 12  1  0
  2 22  2  0
  3  6  1  0
  3 12  1  0
  3 19  1  0
  4 15  2  0
  4 16  1  0
  4 21  1  0
  5 13  2  0
  5 20  1  0
  6 11  2  0
  6 16  1  0
  7 15  1  0
  7 17  1  0
  8 12  2  0
  8 18  1  0
  9 14  1  0
 10 18  2  0
 10 22  1  0
 13 15  1  0
 17 14  1  6
 17 19  1  0
 20 21  2  0
M  END
