
     RDKit          3D

 14 15  0  0  0  0  0  0  0  0999 V2000
   25.5098    6.0881   -9.6593 O   0  0  0  0  0  0  0  0  0  0  0  0
   25.3323    5.7509   -8.4956 C   0  0  0  0  0  0  0  0  0  0  0  0
   22.8928    4.9406   -7.2022 C   0  0  0  0  0  0  0  0  0  0  0  0
   25.8142    2.4866   -6.8777 C   0  0  0  0  0  0  0  0  0  0  0  0
   25.0114    3.5894   -7.0595 C   0  0  0  0  0  0  0  0  0  0  0  0
   22.6700    7.9502   -5.3201 N   0  0  0  0  0  0  0  0  0  0  0  0
   26.9117    2.6819   -7.6678 N   0  0  0  0  0  0  0  0  0  0  0  0
   25.7455    4.4313   -7.9633 C   0  0  0  0  0  0  0  0  0  0  0  0
   25.6569    1.3765   -6.1344 N   0  0  0  0  0  0  0  0  0  0  0  0
   23.1208    7.2073   -6.0912 C   0  0  0  0  0  0  0  0  0  0  0  0
   23.6617    3.8419   -6.4752 C   0  0  0  0  0  0  0  0  0  0  0  0
   26.8955    3.8414   -8.3397 N   0  0  0  0  0  0  0  0  0  0  0  0
   23.6342    6.2309   -7.0260 C   0  0  0  0  0  0  0  0  0  0  0  0
   24.7481    6.5893   -7.5713 N   0  0  0  0  0  0  0  0  0  0  0  0
  1  2  2  0
  2  8  1  0
  2 14  1  0
  3 11  1  0
  3 13  1  0
  4  5  2  0
  4  7  1  0
  4  9  1  0
  5  8  1  0
  5 11  1  0
  6 10  3  0
  7 12  1  0
  8 12  2  0
 10 13  1  0
 13 14  2  0
M  END
$$$$
