
     RDKit          3D

 31 38  0  0  0  0  0  0  0  0999 V2000
   23.6880    1.8939   -6.7488 C   0  0  1  0  0  0  0  0  0  0  0  0
   24.2690    5.0465   -7.7299 C   0  0  2  0  0  0  0  0  0  0  0  0
   25.5584    6.0937  -10.8170 N   0  0  0  0  0  0  0  0  0  0  0  0
   22.8858    5.3740   -7.1673 C   0  0  2  0  0  0  0  0  0  0  0  0
   23.0365    5.7243   -4.5523 C   0  0  2  0  0  0  0  0  0  0  0  0
   23.7944    0.4195   -6.2727 C   0  0  0  0  0  0  0  0  0  0  0  0
   23.2200    2.6578   -5.6398 O   0  0  0  0  0  0  0  0  0  0  0  0
   22.9360    5.7586   -9.6940 C   0  0  1  0  0  0  0  0  0  0  0  0
   24.0606    8.7848   -3.7671 C   0  0  0  0  0  0  0  0  0  0  0  0
   24.5748    7.0516  -10.8413 C   0  0  0  0  0  0  0  0  0  0  0  0
   24.7639    0.2904   -5.2289 O   0  0  0  0  0  0  0  0  0  0  0  0
   26.0704    0.5812   -5.7134 C   0  0  0  0  0  0  0  0  0  0  0  0
   22.1408    6.0422   -8.4020 C   0  0  0  0  0  0  0  0  0  0  0  0
   25.0801    2.4186   -7.1910 C   0  0  1  0  0  0  0  0  0  0  0  0
   23.2122    8.6400   -5.0083 C   0  0  2  0  0  0  0  0  0  0  0  0
   27.2995    3.5599   -9.3617 C   0  0  0  0  0  0  0  0  0  0  0  0
   24.7573    3.8349  -10.0699 C   0  0  1  0  0  0  0  0  0  0  0  0
   23.3841    7.0109  -10.3377 N   0  0  0  0  0  0  0  0  0  0  0  0
   22.7070    8.1338   -3.6789 C   0  0  1  0  0  0  0  0  0  0  0  0
   27.3996    2.1458   -9.2812 O   0  0  0  0  0  0  0  0  0  0  0  0
   24.0483    4.9343   -9.2086 C   0  0  2  0  0  0  0  0  0  0  0  0
   22.6336    1.9106   -7.8582 C   0  0  0  0  0  0  0  0  0  0  0  0
   25.3449    5.1483   -9.7924 C   0  0  2  0  0  0  0  0  0  0  0  0
   24.9659    8.1804  -11.4851 N   0  0  0  0  0  0  0  0  0  0  0  0
   24.4818    5.3095   -4.2769 C   0  0  0  0  0  0  0  0  0  0  0  0
   25.3408    3.9243   -7.5695 C   0  0  1  0  0  0  0  0  0  0  0  0
   26.1510    2.0393   -6.1280 C   0  0  0  0  0  0  0  0  0  0  0  0
   22.7848    6.3532   -5.9476 C   0  0  1  0  0  0  0  0  0  0  0  0
   25.9069    3.9939   -9.0634 C   0  0  2  0  0  0  0  0  0  0  0  0
   22.5210    6.6631   -3.4372 C   0  0  0  0  0  0  0  0  0  0  0  0
   23.5930    7.6625   -6.0837 C   0  0  0  0  0  0  0  0  0  0  0  0
  1  6  1  0
  1  7  1  0
  1 14  1  0
  1 22  1  6
  2  4  1  1
  2 21  1  0
  2 26  1  0
  3 10  1  0
 23  3  1  1
  4 13  1  6
  4 28  1  0
  5 25  1  1
  5 28  1  0
  5 30  1  0
  6 11  1  0
  8 13  1  1
  8 18  1  0
 21  8  1  6
 15  9  1  1
 19  9  1  1
 10 18  2  0
 10 24  1  0
 11 12  1  0
 12 27  1  0
 26 14  1  6
 14 27  1  1
 15 19  1  0
 15 31  1  0
 16 20  1  0
 29 16  1  1
 17 21  1  0
 17 23  1  0
 17 29  1  1
 19 30  1  0
 21 23  1  0
 23 29  1  0
 26 29  1  0
 28 31  1  6
M  END
$$$$
