
     RDKit          3D

 24 26  0  0  0  0  0  0  0  0999 V2000
   24.4662    3.2824   -8.6380 S   0  0  0  0  0  0  0  0  0  0  0  0
   27.0282    2.7598   -9.2862 N   0  0  0  0  0  0  0  0  0  0  0  0
   26.6218    4.9843   -8.2315 C   0  0  0  0  0  0  0  0  0  0  0  0
   24.0604    3.9875   -6.9933 C   0  0  0  0  0  0  0  0  0  0  0  0
   20.6382    7.6852   -6.0307 C   0  0  0  0  0  0  0  0  0  0  0  0
   29.0515    7.4251   -7.0919 N   0  0  0  0  0  0  0  0  0  0  0  0
   27.8298    5.4817   -7.8081 C   0  0  0  0  0  0  0  0  0  0  0  0
   22.8523    6.6219   -8.0739 C   0  0  0  0  0  0  0  0  0  0  0  0
   25.6762    7.0956   -8.0967 C   0  0  0  0  0  0  0  0  0  0  0  0
   25.6018    5.8342   -8.5049 N   0  0  0  0  0  0  0  0  0  0  0  0
   27.3862    3.1436   -5.9858 O   0  0  0  0  0  0  0  0  0  0  0  0
   26.2859    2.7618   -6.7877 C   0  0  0  0  0  0  0  0  0  0  0  0
   20.9832    8.0657   -4.5934 C   0  0  0  0  0  0  0  0  0  0  0  0
   24.6143    2.7121   -4.9870 O   0  0  0  0  0  0  0  0  0  0  0  0
   22.3826    8.0149   -4.3800 O   0  0  0  0  0  0  0  0  0  0  0  0
   20.9522    6.2229   -6.3827 C   0  0  0  0  0  0  0  0  0  0  0  0
   26.3797    1.3394   -6.9414 O   0  0  0  0  0  0  0  0  0  0  0  0
   22.4286    5.9183   -6.7379 C   0  0  1  0  0  0  0  0  0  0  0  0
   27.8740    6.8420   -7.5611 C   0  0  0  0  0  0  0  0  0  0  0  0
   24.1329    7.9724   -7.9232 S   0  0  0  0  0  0  0  0  0  0  0  0
   22.6085    4.3464   -6.7589 C   0  0  0  0  0  0  0  0  0  0  0  0
   24.9098    3.1023   -6.1136 C   0  0  0  0  0  0  0  0  0  0  0  0
   26.8022    7.6486   -7.6412 N   0  0  0  0  0  0  0  0  0  0  0  0
   26.2799    3.4725   -8.2442 C   0  0  1  0  0  0  0  0  0  0  0  0
  1  4  1  0
  1 24  1  0
 24  2  1  6
  3  7  1  0
  3 10  2  0
  3 24  1  0
  4 21  1  0
  4 22  1  0
  5 13  1  0
  5 16  1  0
  6 19  1  0
  7 19  2  0
  8 18  1  0
  8 20  1  0
  9 10  1  0
  9 20  1  0
  9 23  2  0
 11 12  1  0
 12 17  1  0
 12 22  1  0
 12 24  1  0
 13 15  1  0
 14 22  2  0
 18 16  1  6
 18 21  1  0
 19 23  1  0
M  END
$$$$
