
     RDKit          3D

 17 19  0  0  0  0  0  0  0  0999 V2000
   23.4379    3.8650   -5.7667 C   0  0  2  0  0  0  0  0  0  0  0  0
   21.8915    6.1998   -8.4751 C   0  0  0  0  0  0  0  0  0  0  0  0
   27.0070    2.8916   -6.7691 N   0  0  0  0  0  0  0  0  0  0  0  0
   24.2060    5.5204   -7.9468 N   0  0  0  0  0  0  0  0  0  0  0  0
   24.8303    7.5407   -8.8907 O   0  0  0  0  0  0  0  0  0  0  0  0
   28.3421    3.5786   -8.5651 N   0  0  0  0  0  0  0  0  0  0  0  0
   22.9138    2.6120   -5.3430 O   0  0  0  0  0  0  0  0  0  0  0  0
   24.7454    4.1979   -7.8876 C   0  0  1  0  0  0  0  0  0  0  0  0
   22.8858    5.8117   -7.3703 C   0  0  0  0  0  0  0  0  0  0  0  0
   22.3639    4.5394   -6.6454 C   0  0  0  0  0  0  0  0  0  0  0  0
   26.3136    5.7877   -8.6969 N   0  0  0  0  0  0  0  0  0  0  0  0
   27.1937    3.6333   -7.8251 C   0  0  0  0  0  0  0  0  0  0  0  0
   25.0809    6.3917   -8.5694 C   0  0  0  0  0  0  0  0  0  0  0  0
   26.1261    4.6045   -8.2102 C   0  0  0  0  0  0  0  0  0  0  0  0
   24.7214    3.6464   -6.5167 C   0  0  0  0  0  0  0  0  0  0  0  0
   25.8332    3.0426   -6.0555 C   0  0  0  0  0  0  0  0  0  0  0  0
   22.9899    6.9656   -6.3553 C   0  0  0  0  0  0  0  0  0  0  0  0
  1  7  1  1
  1 10  1  0
  1 15  1  0
  2  9  1  0
  3 12  2  0
  3 16  1  0
  8  4  1  1
  4  9  1  0
  4 13  1  0
  5 13  2  0
  6 12  1  0
  8 14  1  0
  8 15  1  0
  9 10  1  0
  9 17  1  0
 11 13  1  0
 11 14  2  0
 12 14  1  0
 15 16  2  0
M  END
$$$$
