
     RDKit          3D

 22 23  0  0  0  0  0  0  0  0999 V2000
    9.7780   -2.9417    3.2900 C   0  0  0  0  0  0  0  0  0  0  0  0
    8.6971   -2.3496    2.4884 C   0  0  0  0  0  0  0  0  0  0  0  0
    6.8848    3.4575    4.5901 O   0  0  0  0  0  0  0  0  0  0  0  0
    9.6241   -3.7478    4.1990 O   0  0  0  0  0  0  0  0  0  0  0  0
    5.0139   -1.1286    2.5613 C   0  0  0  0  0  0  0  0  0  0  0  0
    3.4516   -0.5048    0.7539 C   0  0  0  0  0  0  0  0  0  0  0  0
   11.0662   -2.6384    2.9474 O   0  0  0  0  0  0  0  0  0  0  0  0
    2.0900    1.3995    1.3830 N   0  0  0  0  0  0  0  0  0  0  0  0
    7.2740   -2.3871    3.0179 C   0  0  0  0  0  0  0  0  0  0  0  0
    8.5025    1.7843    4.6292 O   0  0  0  0  0  0  0  0  0  0  0  0
    8.8987   -2.8077    1.1032 C   0  0  0  0  0  0  0  0  0  0  0  0
    6.3593   -1.4586    2.2062 C   0  0  0  0  0  0  0  0  0  0  0  0
    6.3103    1.1870    5.5931 O   0  0  0  0  0  0  0  0  0  0  0  0
    3.1028    0.4905    1.4605 C   0  0  0  0  0  0  0  0  0  0  0  0
    4.8704    1.1326    2.9759 C   0  0  0  0  0  0  0  0  0  0  0  0
    6.2728    1.4088    3.0531 O   0  0  0  0  0  0  0  0  0  0  0  0
    7.0208    1.9326    4.4249 P   0  0  0  0  0  0  0  0  0  0  0  0
    1.6957    0.3071   -0.3993 N   0  0  0  0  0  0  0  0  0  0  0  0
    1.2372    1.1878    0.2718 C   0  0  0  0  0  0  0  0  0  0  0  0
    2.7457   -0.5502   -0.3732 C   0  0  0  0  0  0  0  0  0  0  0  0
    0.1508    1.8126   -0.0012 N   0  0  0  0  0  0  0  0  0  0  0  0
    4.2298    0.0306    2.0556 C   0  0  0  0  0  0  0  0  0  0  0  0
  1  2  1  0
  1  4  1  0
  1  7  2  0
  2  9  1  0
  2 11  1  0
  3 17  2  0
  5 12  2  3
  5 22  1  0
  6 14  1  0
  6 20  2  0
  6 22  1  0
  8 14  2  0
  8 19  1  0
  9 12  1  0
 10 17  1  0
 13 17  1  0
 14 22  1  0
 15 16  1  0
 15 22  1  0
 16 17  1  0
 18 19  2  0
 18 20  1  0
 19 21  1  0
M  END
$$$$
