
     RDKit          3D

 13 13  0  0  0  0  0  0  0  0999 V2000
   18.2455   -2.1030    0.9618 C   0  0  0  0  0  0  0  0  0  0  0  0
   18.4661    0.5137    4.6907 O   0  0  0  0  0  0  0  0  0  0  0  0
   21.3055    3.0247    3.4105 C   0  0  0  0  0  0  0  0  0  0  0  0
   20.9160    1.5789    5.2512 C   0  0  0  0  0  0  0  0  0  0  0  0
   22.2325    3.5354    5.5057 C   0  0  0  0  0  0  0  0  0  0  0  0
   18.8033   -0.8987    1.4685 N   0  0  0  0  0  0  0  0  0  0  0  0
   21.6694    2.4018    6.0569 C   0  0  0  0  0  0  0  0  0  0  0  0
   22.0643    3.8648    4.1860 C   0  0  0  0  0  0  0  0  0  0  0  0
   18.8472    0.5462    3.5244 C   0  0  0  0  0  0  0  0  0  0  0  0
   18.0602   -0.0973    2.4019 C   0  0  0  0  0  0  0  0  0  0  0  0
   19.9367    1.0978    3.0997 N   0  0  0  0  0  0  0  0  0  0  0  0
   19.4427   -0.1822    0.4679 O   0  0  0  0  0  0  0  0  0  0  0  0
   20.7329    1.8822    3.9177 C   0  0  0  0  0  0  0  0  0  0  0  0
  1  6  1  0
  2  9  2  0
  3  8  2  0
  3 13  1  0
  4  7  1  0
  4 13  2  0
  5  7  2  0
  5  8  1  0
  6 10  1  0
  6 12  1  0
  9 10  1  0
  9 11  1  0
 11 13  1  0
M  END
$$$$
