
     RDKit          3D

 31 33  0  0  0  0  0  0  0  0999 V2000
   20.6754   -0.6817    4.7135 O   0  0  0  0  0  0  0  0  0  0  0  0
   20.6348    1.4627    5.9558 C   0  0  0  0  0  0  0  0  0  0  0  0
   19.7783    1.2206    3.7673 C   0  0  0  0  0  0  0  0  0  0  0  0
   16.9552   -1.1261    2.5340 C   0  0  0  0  0  0  0  0  0  0  0  0
   19.5226    0.1088    1.5804 C   0  0  0  0  0  0  0  0  0  0  0  0
   18.8509   -1.0402    0.8324 C   0  0  0  0  0  0  0  0  0  0  0  0
   19.4809   -2.1155    1.2409 F   0  0  0  0  0  0  0  0  0  0  0  0
   20.6221    4.6621    4.8426 O   0  0  0  0  0  0  0  0  0  0  0  0
   19.5017    2.0140    6.4316 F   0  0  0  0  0  0  0  0  0  0  0  0
   21.9342    3.3679    6.5563 F   0  0  0  0  0  0  0  0  0  0  0  0
   17.3828   -1.2284    1.1093 C   0  0  0  0  0  0  0  0  0  0  0  0
   17.7968    1.3247    2.5434 F   0  0  0  0  0  0  0  0  0  0  0  0
   21.2324    0.6452    6.8551 F   0  0  0  0  0  0  0  0  0  0  0  0
   17.4743    0.1061    4.5081 F   0  0  0  0  0  0  0  0  0  0  0  0
   21.6601    2.5292    5.5605 C   0  0  0  0  0  0  0  0  0  0  0  0
   20.8712   -0.0670    1.7485 O   0  0  0  0  0  0  0  0  0  0  0  0
   22.7529    4.0468    4.2670 F   0  0  0  0  0  0  0  0  0  0  0  0
   22.1823    2.1491    3.3597 F   0  0  0  0  0  0  0  0  0  0  0  0
   22.8007    1.7726    5.5327 F   0  0  0  0  0  0  0  0  0  0  0  0
   19.9629    3.1877    2.4668 F   0  0  0  0  0  0  0  0  0  0  0  0
   19.8755    2.6611    3.6557 C   0  0  0  0  0  0  0  0  0  0  0  0
   18.8662    0.4799    2.9022 C   0  0  0  0  0  0  0  0  0  0  0  0
   19.1771   -0.8186   -0.5439 C   0  0  0  0  0  0  0  0  0  0  0  0
   16.9952   -2.5512    0.7785 O   0  0  0  0  0  0  0  0  0  0  0  0
   20.8990    3.2894    4.4913 C   0  0  0  0  0  0  0  0  0  0  0  0
   18.6071    0.3414   -0.9813 O   0  0  0  0  0  0  0  0  0  0  0  0
   16.4778   -2.4363    2.9096 O   0  0  0  0  0  0  0  0  0  0  0  0
   21.9977    2.9183    4.2607 C   0  0  0  0  0  0  0  0  0  0  0  0
   20.3419    0.6146    4.7741 C   0  0  0  0  0  0  0  0  0  0  0  0
   18.7957   -1.5931    3.8397 F   0  0  0  0  0  0  0  0  0  0  0  0
   18.0645   -0.5490    3.4571 C   0  0  0  0  0  0  0  0  0  0  0  0
  1 29  1  0
  2  9  1  0
  2 13  1  0
  2 15  1  0
  2 29  1  0
  3 21  1  0
  3 22  1  0
  3 29  2  0
  4 11  1  0
  4 27  1  0
  4 31  1  0
  5  6  1  0
  5 16  1  0
  5 22  1  0
  6  7  1  0
  6 11  1  0
  6 23  1  0
  8 25  1  0
 10 15  1  0
 11 24  1  0
 12 22  1  0
 14 31  1  0
 15 19  1  0
 15 25  1  0
 15 28  1  0
 17 28  1  0
 18 28  1  0
 20 21  1  0
 21 25  1  0
 22 31  1  0
 23 26  1  0
 25 28  1  0
 30 31  1  0
M  END
$$$$
