
     RDKit          3D

 14 14  0  0  0  0  0  0  0  0999 V2000
   19.0255    0.1274    4.8412 O   0  0  0  0  0  0  0  0  0  0  0  0
   17.2517    0.0524    2.2538 N   0  0  0  0  0  0  0  0  0  0  0  0
   21.0631    1.9623    5.7600 C   0  0  0  0  0  0  0  0  0  0  0  0
   20.6555    1.8098    4.4187 C   0  0  0  0  0  0  0  0  0  0  0  0
   19.6992    0.7574    4.0197 C   0  0  0  0  0  0  0  0  0  0  0  0
   22.0366    3.7600    3.8083 C   0  0  0  0  0  0  0  0  0  0  0  0
   18.8983   -2.1005    0.6657 O   0  0  0  0  0  0  0  0  0  0  0  0
   22.4159    3.8743    5.1359 C   0  0  0  0  0  0  0  0  0  0  0  0
   18.5886   -0.4773    2.2835 C   0  0  0  0  0  0  0  0  0  0  0  0
   19.5798    0.5453    2.6881 N   0  0  0  0  0  0  0  0  0  0  0  0
   21.1390    2.7052    3.4581 C   0  0  0  0  0  0  0  0  0  0  0  0
   19.2135   -0.0059    0.0569 O   0  0  0  0  0  0  0  0  0  0  0  0
   18.9179   -0.8955    0.8979 C   0  0  0  0  0  0  0  0  0  0  0  0
   21.9485    2.9996    6.1393 C   0  0  0  0  0  0  0  0  0  0  0  0
  1  5  2  0
  2  9  1  0
  3  4  1  0
  3 14  2  0
  4  5  1  0
  4 11  2  0
  5 10  1  0
  6  8  2  0
  6 11  1  0
  7 13  2  0
  8 14  1  0
  9 10  1  0
  9 13  1  0
 12 13  1  0
M  END
$$$$
