
     RDKit          3D

 13 14  0  0  0  0  0  0  0  0999 V2000
   19.2222   -0.0978   -0.0392 N   0  0  0  0  0  0  0  0  0  0  0  0
   18.8025   -0.6405    1.1239 C   0  0  0  0  0  0  0  0  0  0  0  0
   20.0698    0.9493    2.5803 N   0  0  0  0  0  0  0  0  0  0  0  0
   19.2753    0.3962    4.5439 C   0  0  0  0  0  0  0  0  0  0  0  0
   19.1899   -0.0290    2.4040 C   0  0  0  0  0  0  0  0  0  0  0  0
   22.2319    4.1823    4.5737 C   0  0  0  0  0  0  0  0  0  0  0  0
   22.2125    3.7471    5.8608 C   0  0  0  0  0  0  0  0  0  0  0  0
   18.1069   -1.6392    1.1867 O   0  0  0  0  0  0  0  0  0  0  0  0
   21.2901    2.2353    6.0810 S   0  0  0  0  0  0  0  0  0  0  0  0
   20.9432    2.2655    4.3628 C   0  0  0  0  0  0  0  0  0  0  0  0
   18.6585   -0.4365    3.6135 C   0  0  0  0  0  0  0  0  0  0  0  0
   20.1495    1.2623    3.8722 C   0  0  0  0  0  0  0  0  0  0  0  0
   21.5146    3.3773    3.6880 C   0  0  0  0  0  0  0  0  0  0  0  0
  1  2  1  0
  2  5  1  0
  2  8  2  0
  3  5  2  0
  3 12  1  0
  4 11  2  0
  4 12  1  0
  5 11  1  0
  6  7  2  0
  6 13  1  0
  7  9  1  0
  9 10  1  0
 10 12  1  0
 10 13  2  0
M  END
$$$$
