
     RDKit          3D

 23 24  0  0  0  0  0  0  0  0999 V2000
   -1.2333   11.9583   -0.9038 C   0  0  0  0  0  0  0  0  0  0  0  0
    0.8425   12.0493    0.3519 C   0  0  0  0  0  0  0  0  0  0  0  0
    0.0355    6.6621    5.4889 O   0  0  0  0  0  0  0  0  0  0  0  0
   -2.0099    7.8726    5.7353 C   0  0  0  0  0  0  0  0  0  0  0  0
   -3.1091    8.6660    0.9064 C   0  0  0  0  0  0  0  0  0  0  0  0
   -1.7053    8.6211    0.8595 C   0  0  0  0  0  0  0  0  0  0  0  0
   -3.8751    7.7851    0.1417 C   0  0  0  0  0  0  0  0  0  0  0  0
   -2.2154    8.3533    6.8539 O   0  0  0  0  0  0  0  0  0  0  0  0
   -0.9973    9.3673    3.1455 N   0  0  0  0  0  0  0  0  0  0  0  0
    1.4653   12.6563   -0.7426 C   0  0  0  0  0  0  0  0  0  0  0  0
   -3.2506    6.8471   -0.6769 C   0  0  0  0  0  0  0  0  0  0  0  0
   -2.1476   11.6431    1.9114 O   0  0  0  0  0  0  0  0  0  0  0  0
   -0.5042   11.6890    0.2621 C   0  0  0  0  0  0  0  0  0  0  0  0
   -0.6049   12.5640   -1.9915 C   0  0  0  0  0  0  0  0  0  0  0  0
    1.7776   11.8087    1.7816 Cl  0  0  0  0  0  0  0  0  0  0  0  0
    0.7440   12.9088   -1.9124 C   0  0  0  0  0  0  0  0  0  0  0  0
   -3.1136    7.1664    4.9916 C   0  0  0  0  0  0  0  0  0  0  0  0
   -1.0907    7.6685    0.0308 C   0  0  0  0  0  0  0  0  0  0  0  0
   -0.6069    7.8886    5.1271 C   0  0  2  0  0  0  0  0  0  0  0  0
   -0.5740    8.0413    3.5969 C   0  0  0  0  0  0  0  0  0  0  0  0
   -1.2230   11.0341    1.3717 C   0  0  0  0  0  0  0  0  0  0  0  0
   -0.8487    9.5697    1.6885 C   0  0  2  0  0  0  0  0  0  0  0  0
   -1.8598    6.7881   -0.7322 C   0  0  0  0  0  0  0  0  0  0  0  0
  1 13  2  0
  1 14  1  0
  2 10  2  0
  2 13  1  0
  2 15  1  0
 19  3  1  6
  4  8  2  0
  4 17  1  0
  4 19  1  0
  5  6  2  0
  5  7  1  0
  6 18  1  0
  6 22  1  0
  7 11  2  0
  9 20  1  0
 22  9  1  1
 10 16  1  0
 11 23  1  0
 12 21  2  0
 13 21  1  0
 14 16  2  0
 18 23  2  0
 19 20  1  0
 21 22  1  0
M  END
$$$$
