
     RDKit          3D

 23 25  0  0  0  0  0  0  0  0999 V2000
   -2.0286   24.7057  -31.3625 C   0  0  0  0  0  0  0  0  0  0  0  0
    0.2339   18.9183  -30.8914 C   0  0  0  0  0  0  0  0  0  0  0  0
    4.5741   19.0342  -34.0544 C   0  0  0  0  0  0  0  0  0  0  0  0
    0.9737   21.4088  -32.0255 C   0  0  0  0  0  0  0  0  0  0  0  0
   -0.5243   20.0644  -30.6882 C   0  0  0  0  0  0  0  0  0  0  0  0
   -3.2839   27.1212  -29.9198 N   0  0  0  0  0  0  0  0  0  0  0  0
   -2.7388   19.6015  -30.9977 C   0  0  0  0  0  0  0  0  0  0  0  0
   -4.7897   25.3881  -29.5920 O   0  0  0  0  0  0  0  0  0  0  0  0
   -0.9778   22.5903  -30.8456 C   0  0  0  0  0  0  0  0  0  0  0  0
    3.7944   19.1668  -32.8706 N   0  0  0  0  0  0  0  0  0  0  0  0
   -2.4192   23.6762  -29.2222 C   0  0  0  0  0  0  0  0  0  0  0  0
   -0.5044   23.7298  -33.3738 Cl  0  0  0  0  0  0  0  0  0  0  0  0
    1.3366   19.0221  -31.7064 C   0  0  0  0  0  0  0  0  0  0  0  0
   -1.2229   23.6799  -31.7403 C   0  0  0  0  0  0  0  0  0  0  0  0
    4.1191   19.9190  -34.9158 C   0  0  0  0  0  0  0  0  0  0  0  0
   -3.6011   25.8125  -29.8274 C   0  0  0  0  0  0  0  0  0  0  0  0
   -0.1560   21.3568  -31.2382 C   0  0  0  0  0  0  0  0  0  0  0  0
    2.8594   20.1318  -33.1175 N   0  0  0  0  0  0  0  0  0  0  0  0
    1.7364   20.2548  -32.2987 C   0  0  0  0  0  0  0  0  0  0  0  0
   -1.5898   22.6687  -29.6054 C   0  0  0  0  0  0  0  0  0  0  0  0
   -2.6455   24.6893  -30.0704 C   0  0  0  0  0  0  0  0  0  0  0  0
    3.1006   20.5848  -34.3699 C   0  0  0  0  0  0  0  0  0  0  0  0
   -1.7342   19.9806  -30.0341 O   0  0  0  0  0  0  0  0  0  0  0  0
  1 14  1  0
  1 21  2  0
  2  5  1  0
  2 13  2  0
  3 10  2  0
  3 15  1  0
  4 17  1  0
  4 19  2  0
  5 17  2  0
  5 23  1  0
  6 16  1  0
  7 23  1  0
  8 16  2  0
  9 14  2  0
  9 17  1  0
  9 20  1  0
 10 18  1  0
 11 20  2  0
 11 21  1  0
 12 14  1  0
 13 19  1  0
 15 22  2  0
 16 21  1  0
 18 19  1  0
 18 22  1  0
M  END
$$$$
