
     RDKit          3D

 20 21  0  0  0  0  0  0  0  0999 V2000
   48.7512  -16.0936   24.8509 P   0  0  0  0  0  0  0  0  0  0  0  0
   46.5609   -8.6677   26.7230 C   0  0  0  0  0  0  0  0  0  0  0  0
   48.9673  -13.8450   23.5735 C   0  0  0  0  0  0  0  0  0  0  0  0
   50.6589  -10.3203   25.3939 O   0  0  0  0  0  0  0  0  0  0  0  0
   49.9016  -15.9919   25.9787 O   0  0  0  0  0  0  0  0  0  0  0  0
   47.3832   -8.7885   25.6268 N   0  0  0  0  0  0  0  0  0  0  0  0
   48.8153  -11.2288   22.3658 O   0  0  0  0  0  0  0  0  0  0  0  0
   48.1716  -14.6355   24.4783 O   0  0  0  0  0  0  0  0  0  0  0  0
   46.1055   -7.6329   27.2211 C   0  0  0  0  0  0  0  0  0  0  0  0
   49.6928  -10.3226   24.3240 C   0  0  0  0  0  0  0  0  0  0  0  0
   46.8960  -10.0681   26.6493 C   0  0  0  0  0  0  0  0  0  0  0  0
   47.7534   -9.8692   25.7273 N   0  0  0  0  0  0  0  0  0  0  0  0
   48.6400  -12.1002   25.2107 O   0  0  0  0  0  0  0  0  0  0  0  0
   49.4764  -16.6045   23.3095 O   0  0  0  0  0  0  0  0  0  0  0  0
   45.0570   -7.4367   27.5907 O   0  0  0  0  0  0  0  0  0  0  0  0
   47.4094  -17.0320   25.3651 O   0  0  0  0  0  0  0  0  0  0  0  0
   49.5114  -12.6446   24.2337 C   0  0  0  0  0  0  0  0  0  0  0  0
   49.8047  -11.4339   23.3692 C   0  0  0  0  0  0  0  0  0  0  0  0
   46.8505   -6.7214   26.8729 O   0  0  0  0  0  0  0  0  0  0  0  0
   48.4656  -10.7740   24.8622 C   0  0  0  0  0  0  0  0  0  0  0  0
  1  5  1  0
  1  8  1  0
  1 14  1  0
  1 16  2  0
  2  6  4  0
  2  9  1  0
  2 11  4  0
  3  8  1  0
  3 17  1  0
  4 10  1  0
  6 12  4  0
  7 18  1  0
  9 15  1  0
  9 19  2  0
 10 18  1  0
 10 20  1  0
 11 12  4  0
 12 20  1  0
 13 17  1  0
 13 20  1  0
 17 18  1  0
M  END
$$$$
