
     RDKit          3D

 18 18  0  0  0  0  0  0  0  0999 V2000
   45.7625   -7.9459   25.4573 O   0  0  0  0  0  0  0  0  0  0  0  0
   45.1272   -8.1316   27.8215 O   0  0  0  0  0  0  0  0  0  0  0  0
   46.2906   -7.8729   26.8191 P   0  0  0  0  0  0  0  0  0  0  0  0
   48.9630  -13.2506   25.1545 C   0  0  0  0  0  0  0  0  0  0  0  0
   48.2399  -11.0077   25.8161 C   0  0  0  0  0  0  0  0  0  0  0  0
   47.3692   -9.0806   27.0030 O   0  0  0  0  0  0  0  0  0  0  0  0
   48.0689  -10.0394   23.4128 O   0  0  0  0  0  0  0  0  0  0  0  0
   49.4519  -10.3175   26.0474 O   0  0  0  0  0  0  0  0  0  0  0  0
   48.2303  -14.3619   24.6682 O   0  0  0  0  0  0  0  0  0  0  0  0
   47.7010  -16.6798   23.9990 O   0  0  0  0  0  0  0  0  0  0  0  0
   48.0770  -11.1978   24.3077 C   0  0  0  0  0  0  0  0  0  0  0  0
   47.0521  -10.3562   26.5382 C   0  0  0  0  0  0  0  0  0  0  0  0
   46.9749   -6.5985   27.2471 O   0  0  0  0  0  0  0  0  0  0  0  0
   49.0811  -12.2290   24.0167 C   0  0  0  0  0  0  0  0  0  0  0  0
   49.6151  -16.0664   25.4870 O   0  0  0  0  0  0  0  0  0  0  0  0
   48.3396  -12.4712   26.2950 C   0  0  0  0  0  0  0  0  0  0  0  0
   49.6859  -15.5504   22.9693 O   0  0  0  0  0  0  0  0  0  0  0  0
   48.8145  -15.7422   24.1829 P   0  0  0  0  0  0  0  0  0  0  0  0
  1  3  1  0
  2  3  1  0
  3  6  1  0
  3 13  2  0
  4  9  1  0
  4 14  1  0
  4 16  1  0
  5  8  1  0
  5 11  1  0
  5 12  1  0
  5 16  1  0
  6 12  1  0
  7 11  1  0
  9 18  1  0
 10 18  2  0
 11 14  1  0
 15 18  1  0
 17 18  1  0
M  END
$$$$
