
     RDKit          3D

 18 19  0  0  0  0  0  0  0  0999 V2000
   50.0439   -9.6985   24.9808 O   0  0  0  0  0  0  0  0  0  0  0  0
   47.1814   -9.0746   26.9840 O   0  0  0  0  0  0  0  0  0  0  0  0
   48.8815  -14.0702   24.4366 C   0  0  0  0  0  0  0  0  0  0  0  0
   48.6257  -15.7493   24.6040 P   0  0  0  0  0  0  0  0  0  0  0  0
   47.9998  -14.7281   25.4517 O   0  0  0  0  0  0  0  0  0  0  0  0
   48.9497  -11.5625   23.7759 C   0  0  0  0  0  0  0  0  0  0  0  0
   47.9630  -12.3001   25.7523 O   0  0  0  0  0  0  0  0  0  0  0  0
   48.3098  -12.7106   24.4978 C   0  0  0  0  0  0  0  0  0  0  0  0
   47.3252   -6.5989   27.1379 O   0  0  0  0  0  0  0  0  0  0  0  0
   48.8095  -10.3448   24.6029 C   0  0  0  0  0  0  0  0  0  0  0  0
   48.1989  -10.8945   25.8401 C   0  0  0  0  0  0  0  0  0  0  0  0
   45.0051   -7.8665   27.6189 O   0  0  0  0  0  0  0  0  0  0  0  0
   46.2707   -7.8120   26.7066 P   0  0  0  0  0  0  0  0  0  0  0  0
   49.8286  -16.4197   25.2782 O   0  0  0  0  0  0  0  0  0  0  0  0
   45.7288   -7.9875   25.3335 O   0  0  0  0  0  0  0  0  0  0  0  0
   48.5870  -11.4920   22.4465 O   0  0  0  0  0  0  0  0  0  0  0  0
   47.8515  -16.5028   23.6136 O   0  0  0  0  0  0  0  0  0  0  0  0
   46.9570  -10.1916   26.1952 C   0  0  0  0  0  0  0  0  0  0  0  0
  1 10  1  0
  2 13  1  0
  2 18  1  0
  3  4  1  0
  3  5  1  0
  3  8  1  0
  4  5  1  0
  4 14  1  0
  4 17  2  0
  6  8  1  0
  6 10  1  0
  6 16  1  0
  7  8  1  0
  7 11  1  0
  9 13  1  0
 10 11  1  0
 11 18  1  0
 12 13  1  0
 13 15  2  0
M  END
$$$$
