
     RDKit          3D

 18 19  0  0  0  0  0  0  0  0999 V2000
   46.8094   -8.3816   28.2252 C   0  0  0  0  0  0  0  0  0  0  0  0
   45.9951   -7.4290   27.6683 N   0  0  0  0  0  0  0  0  0  0  0  0
   48.2684  -10.6925   25.5509 C   0  0  0  0  0  0  0  0  0  0  0  0
   47.7094  -12.1502   25.4030 C   0  0  0  0  0  0  0  0  0  0  0  0
   46.4859   -8.5820   25.6697 C   0  0  0  0  0  0  0  0  0  0  0  0
   47.5221  -10.3277   23.1503 O   0  0  0  0  0  0  0  0  0  0  0  0
   47.2742   -9.5337   26.2835 C   0  0  0  0  0  0  0  0  0  0  0  0
   48.6568  -10.5042   24.1148 C   0  0  0  0  0  0  0  0  0  0  0  0
   45.8741   -7.5859   26.4047 C   0  0  0  0  0  0  0  0  0  0  0  0
   47.4402  -16.1418   24.9459 O   0  0  0  0  0  0  0  0  0  0  0  0
   49.5575  -15.3656   25.8921 O   0  0  0  0  0  0  0  0  0  0  0  0
   49.4132  -16.3767   23.5838 O   0  0  0  0  0  0  0  0  0  0  0  0
   48.4471  -14.0527   24.0928 O   0  0  0  0  0  0  0  0  0  0  0  0
   47.5991   -9.4292   27.5436 C   0  0  0  0  0  0  0  0  0  0  0  0
   48.7780  -15.4942   24.6154 P   0  0  0  0  0  0  0  0  0  0  0  0
   49.3049  -11.7568   23.7557 C   0  0  0  0  0  0  0  0  0  0  0  0
   50.7325  -11.6120   23.8817 O   0  0  0  0  0  0  0  0  0  0  0  0
   48.8299  -12.8145   24.6642 C   0  0  0  0  0  0  0  0  0  0  0  0
  1  2  1  0
  1 14  2  0
  2  9  2  0
  3  4  1  0
  3  7  1  0
  3  8  1  0
  4 18  1  0
  5  7  2  0
  5  9  1  0
  6  8  1  0
  7 14  1  0
  8 16  1  0
 10 15  1  0
 11 15  2  0
 12 15  1  0
 13 15  1  0
 13 18  1  0
 16 17  1  0
 16 18  1  0
M  END
$$$$
