
     RDKit          3D

 18 19  0  0  0  0  0  0  0  0999 V2000
   30.4478   35.5473  103.5452 C   0  0  0  0  0  0  0  0  0  0  0  0
   24.8749   35.7638  103.5138 C   0  0  0  0  0  0  0  0  0  0  0  0
   24.2506   35.5910  104.8961 C   0  0  0  0  0  0  0  0  0  0  0  0
   24.1908   35.2272  103.1725 C   0  0  0  0  0  0  0  0  0  0  0  0
   30.9048   33.4026  103.4781 C   0  0  0  0  0  0  0  0  0  0  0  0
   25.8841   33.7784  103.8133 C   0  0  0  0  0  0  0  0  0  0  0  0
   27.3898   34.0138  103.5786 C   0  0  0  0  0  0  0  0  0  0  0  0
   27.8788   34.5112  105.0195 C   0  0  0  0  0  0  0  0  0  0  0  0
   31.6194   34.1150  102.4568 C   0  0  0  0  0  0  0  0  0  0  0  0
   32.3310   33.4654  101.6696 O   0  0  0  0  0  0  0  0  0  0  0  0
   23.0238   36.2478  105.0865 C   0  0  0  0  0  0  0  0  0  0  0  0
   30.2293   34.3433  104.1273 C   0  0  0  0  0  0  0  0  0  0  0  0
   24.6379   34.2769  103.1734 C   0  0  0  0  0  0  0  0  0  0  0  0
   22.7546   37.2445  104.1612 C   0  0  0  0  0  0  0  0  0  0  0  0
   31.2016   35.3253  102.6108 N   0  0  0  0  0  0  0  0  0  0  0  0
   23.3410   36.9145  102.8633 C   0  0  0  0  0  0  0  0  0  0  0  0
   29.3629   34.1058  105.3386 C   0  0  0  0  0  0  0  0  0  0  0  0
   29.9199   36.6888  103.8890 O   0  0  0  0  0  0  0  0  0  0  0  0
  1 12  1  0
  1 15  1  0
  1 18  2  0
  2  3  1  0
  2  4  1  0
  2 16  1  0
  3 11  1  0
  4 13  1  0
  5  9  1  0
  5 12  2  0
  6  7  1  0
  6 13  1  0
  7  8  1  0
  8 17  1  0
  9 10  2  0
  9 15  1  0
 11 14  1  0
 12 17  1  0
 14 16  2  0
M  END
$$$$
