
     RDKit          3D

 18 21  0  0  0  0  0  0  0  0999 V2000
   29.0420   35.8103  104.5881 C   0  0  0  0  0  0  0  0  0  0  0  0
   27.2429   34.7165  103.4141 C   0  0  0  0  0  0  0  0  0  0  0  0
   25.0329   33.4866  103.7464 C   0  0  0  0  0  0  0  0  0  0  0  0
   31.6393   34.2452  102.9070 C   0  0  0  0  0  0  0  0  0  0  0  0
   24.2775   36.7021  102.6981 C   0  0  0  0  0  0  0  0  0  0  0  0
   33.0064   33.9868  102.6510 N   0  0  0  0  0  0  0  0  0  0  0  0
   29.9404   35.1047  103.8322 C   0  0  0  0  0  0  0  0  0  0  0  0
   23.7096   34.0714  104.2459 C   0  0  0  0  0  0  0  0  0  0  0  0
   24.0671   35.4660  104.6476 C   0  0  0  0  0  0  0  0  0  0  0  0
   30.5653   33.6111  102.2473 N   0  0  0  0  0  0  0  0  0  0  0  0
   27.6764   35.6210  104.3853 C   0  0  0  0  0  0  0  0  0  0  0  0
   31.2825   35.0931  103.8156 N   0  0  0  0  0  0  0  0  0  0  0  0
   22.9463   36.4702  104.5748 C   0  0  0  0  0  0  0  0  0  0  0  0
   25.0447   35.8557  103.6323 N   0  0  0  0  0  0  0  0  0  0  0  0
   23.5401   37.5574  103.7141 C   0  0  0  0  0  0  0  0  0  0  0  0
   25.7718   34.6419  103.1156 C   0  0  0  0  0  0  0  0  0  0  0  0
   29.5045   34.1880  102.8608 C   0  0  0  0  0  0  0  0  0  0  0  0
   28.1254   33.9843  102.6337 C   0  0  0  0  0  0  0  0  0  0  0  0
  1  7  1  0
  1 11  2  0
  2 11  1  0
  2 16  1  0
  2 18  2  0
  3  8  1  0
  3 16  1  0
  4  6  1  0
  4 10  2  0
  4 12  1  0
  5 14  1  0
  5 15  1  0
  7 12  1  0
  7 17  2  0
  8  9  1  0
  9 13  1  0
  9 14  1  0
 10 17  1  0
 13 15  1  0
 14 16  1  0
 17 18  1  0
M  END
$$$$
