
     RDKit          3D

 22 25  0  0  0  0  0  0  0  0999 V2000
   12.9457   32.4514   14.8762 C   0  0  0  0  0  0  0  0  0  0  0  0
   12.7129   31.1426   14.5611 C   0  0  0  0  0  0  0  0  0  0  0  0
   12.0104   33.1702   15.8442 C   0  0  0  0  0  0  0  0  0  0  0  0
   17.2092   35.9588   12.2015 C   0  0  0  0  0  0  0  0  0  0  0  0
   13.5890   33.3367   14.0908 C   0  0  0  0  0  0  0  0  0  0  0  0
   10.0774   34.8644   17.5042 N   0  0  0  0  0  0  0  0  0  0  0  0
   11.2351   32.4754   16.5365 O   0  0  0  0  0  0  0  0  0  0  0  0
   12.9219   30.5501   13.5293 C   0  0  0  0  0  0  0  0  0  0  0  0
   14.4256   34.4569   14.0420 C   0  0  0  0  0  0  0  0  0  0  0  0
   13.4903   31.1480   12.8344 C   0  0  0  0  0  0  0  0  0  0  0  0
   13.0704   35.5486   15.6890 C   0  0  0  0  0  0  0  0  0  0  0  0
   15.6253   34.3007   11.7025 C   0  0  0  0  0  0  0  0  0  0  0  0
   16.3746   35.8119   13.3837 C   0  0  0  0  0  0  0  0  0  0  0  0
   11.2579   35.3066   16.9320 C   0  0  0  0  0  0  0  0  0  0  0  0
   12.7784   36.7438   16.3375 C   0  0  0  0  0  0  0  0  0  0  0  0
   15.7695   34.4344   13.2325 C   0  0  0  0  0  0  0  0  0  0  0  0
   16.7139   35.1045   11.1832 N   0  0  0  0  0  0  0  0  0  0  0  0
   11.6513   36.5841   17.1294 N   0  0  0  0  0  0  0  0  0  0  0  0
   16.7157   33.3206   13.7424 C   0  0  0  0  0  0  0  0  0  0  0  0
   13.5694   32.4868   13.1353 C   0  0  0  0  0  0  0  0  0  0  0  0
   12.0914   34.5922   16.0762 C   0  0  0  0  0  0  0  0  0  0  0  0
   14.0953   35.4869   14.8176 N   0  0  0  0  0  0  0  0  0  0  0  0
  1  2  2  0
  1  3  1  0
  1  5  1  0
  2  8  1  0
  3  7  2  0
  3 21  1  0
  4 13  1  0
  4 17  1  0
  5  9  1  0
  5 20  2  0
  6 14  1  0
  8 10  2  0
  9 16  1  0
  9 22  2  0
 10 20  1  0
 11 15  2  0
 11 21  1  0
 11 22  1  0
 12 16  1  0
 12 17  1  0
 13 16  1  0
 14 18  1  0
 14 21  2  0
 15 18  1  0
 16 19  1  0
M  END
$$$$
