
     RDKit          3D

 24 28  0  0  0  0  0  0  0  0999 V2000
   14.6453   36.3354   14.4173 N   0  0  0  0  0  0  0  0  0  0  0  0
   11.4854   31.6234   15.5271 N   0  0  0  0  0  0  0  0  0  0  0  0
   12.9813   34.7025   15.4830 C   0  0  0  0  0  0  0  0  0  0  0  0
   10.7236   35.1325   17.3760 N   0  0  0  0  0  0  0  0  0  0  0  0
   10.4836   31.8083   16.3237 C   0  0  0  0  0  0  0  0  0  0  0  0
   16.7177   35.6822   12.8538 C   0  0  0  0  0  0  0  0  0  0  0  0
   13.4462   32.6027   14.4245 C   0  0  0  0  0  0  0  0  0  0  0  0
   17.4991   35.7940   11.8043 C   0  0  0  0  0  0  0  0  0  0  0  0
   17.0400   35.4707   10.6288 N   0  0  0  0  0  0  0  0  0  0  0  0
   15.8738   34.9548   10.4864 C   0  0  0  0  0  0  0  0  0  0  0  0
   14.5825   35.1389   13.9456 C   0  0  0  0  0  0  0  0  0  0  0  0
   13.7585   34.1974   14.4870 C   0  0  0  0  0  0  0  0  0  0  0  0
   10.9793   33.9199   16.7535 C   0  0  0  0  0  0  0  0  0  0  0  0
   15.0531   34.7489   11.5269 C   0  0  0  0  0  0  0  0  0  0  0  0
   15.4991   35.0769   12.7671 C   0  0  0  0  0  0  0  0  0  0  0  0
   10.1696   32.8632   16.9704 N   0  0  0  0  0  0  0  0  0  0  0  0
   14.1255   30.7874   12.9896 C   0  0  0  0  0  0  0  0  0  0  0  0
   12.1967   32.5737   15.3358 C   0  0  0  0  0  0  0  0  0  0  0  0
   12.0102   33.7560   15.9121 C   0  0  0  0  0  0  0  0  0  0  0  0
   13.0679   35.9439   15.9203 N   0  0  0  0  0  0  0  0  0  0  0  0
   14.6385   31.7880   14.9387 C   0  0  0  0  0  0  0  0  0  0  0  0
   15.2778   31.2880   13.6953 C   0  0  0  0  0  0  0  0  0  0  0  0
   13.1917   31.9296   13.0503 C   0  0  0  0  0  0  0  0  0  0  0  0
   13.9291   36.6887   15.3838 C   0  0  0  0  0  0  0  0  0  0  0  0
  1 11  1  0
  1 24  2  0
  2  5  1  0
  2 18  2  0
  3 12  1  0
  3 19  1  0
  3 20  2  0
  4 13  1  0
  5 16  2  0
  6  8  2  0
  6 15  1  0
  7 12  1  0
  7 18  1  0
  7 21  1  0
  7 23  1  0
  8  9  1  0
  9 10  2  0
 10 14  1  0
 11 12  2  0
 11 15  1  0
 13 16  1  0
 13 19  2  0
 14 15  2  0
 17 22  1  0
 17 23  1  0
 18 19  1  0
 20 24  1  0
 21 22  1  0
M  END
$$$$
