
     RDKit          3D

 22 25  0  0  0  0  0  0  0  0999 V2000
   10.7288   34.5291   16.9411 C   0  0  0  0  0  0  0  0  0  0  0  0
   13.5347   34.4617   14.5852 N   0  0  0  0  0  0  0  0  0  0  0  0
   14.1449   29.9399   13.1216 C   0  0  0  0  0  0  0  0  0  0  0  0
   10.3075   33.2701   16.9810 N   0  0  0  0  0  0  0  0  0  0  0  0
   13.8604   32.1934   13.7894 C   0  0  0  0  0  0  0  0  0  0  0  0
   17.1860   35.5267   12.5657 C   0  0  0  0  0  0  0  0  0  0  0  0
   12.7479   31.7708   14.6437 C   0  0  0  0  0  0  0  0  0  0  0  0
   12.3845   30.4334   14.6703 C   0  0  0  0  0  0  0  0  0  0  0  0
   12.0510   32.6970   15.4303 C   0  0  0  0  0  0  0  0  0  0  0  0
   13.0994   29.5274   13.8979 C   0  0  0  0  0  0  0  0  0  0  0  0
   11.8197   34.9401   16.2152 C   0  0  0  0  0  0  0  0  0  0  0  0
   10.9573   32.3419   16.2457 C   0  0  0  0  0  0  0  0  0  0  0  0
   12.2694   36.3630   16.2436 C   0  0  0  0  0  0  0  0  0  0  0  0
   16.6438   35.8887   11.2642 N   0  0  0  0  0  0  0  0  0  0  0  0
   14.2252   33.6171   13.8098 C   0  0  0  0  0  0  0  0  0  0  0  0
   12.4962   34.0511   15.3821 C   0  0  0  0  0  0  0  0  0  0  0  0
   10.0450   35.4116   17.6891 N   0  0  0  0  0  0  0  0  0  0  0  0
   14.6769   34.5238   11.6427 C   0  0  0  0  0  0  0  0  0  0  0  0
   15.2425   34.2017   12.9955 N   0  0  0  0  0  0  0  0  0  0  0  0
   14.5295   31.2660   13.0504 C   0  0  0  0  0  0  0  0  0  0  0  0
   16.0726   35.2628   13.5595 C   0  0  0  0  0  0  0  0  0  0  0  0
   15.7989   34.8604   10.6829 C   0  0  0  0  0  0  0  0  0  0  0  0
  1  4  2  0
  1 11  1  0
  1 17  1  0
  2 15  2  0
  2 16  1  0
  3 10  2  0
  3 20  1  0
  4 12  1  0
  5  7  1  0
  5 15  1  0
  5 20  2  0
  6 14  1  0
  6 21  1  0
  7  8  2  0
  7  9  1  0
  8 10  1  0
  9 12  1  0
  9 16  2  0
 11 13  1  0
 11 16  1  0
 14 22  1  0
 15 19  1  0
 18 19  1  0
 18 22  1  0
 19 21  1  0
M  END
$$$$
