
     RDKit          3D

 25 27  0  0  0  0  0  0  0  0999 V2000
   10.2074   11.4270   22.1711 C   0  0  0  0  0  0  0  0  0  0  0  0
    9.2759   10.2851   21.8173 C   0  0  0  0  0  0  0  0  0  0  0  0
   11.2996   11.3560   21.3232 N   0  0  0  0  0  0  0  0  0  0  0  0
    5.8724   10.3730   23.5862 C   0  0  0  0  0  0  0  0  0  0  0  0
   14.3270    9.0056   19.5865 C   0  0  0  0  0  0  0  0  0  0  0  0
    7.8965    8.6990   22.7399 N   0  0  0  0  0  0  0  0  0  0  0  0
   13.4341   10.1460   20.0993 C   0  0  0  0  0  0  0  0  0  0  0  0
   14.3873    9.3447   18.2145 N   0  0  0  0  0  0  0  0  0  0  0  0
    6.0951    9.1441   23.7426 C   0  0  0  0  0  0  0  0  0  0  0  0
   13.8992    9.3617   16.0901 O   0  0  0  0  0  0  0  0  0  0  0  0
   12.1266    9.9701   19.4807 N   0  0  0  0  0  0  0  0  0  0  0  0
    9.9107    9.5901   20.7755 N   0  0  0  0  0  0  0  0  0  0  0  0
    6.1596    7.8799   23.9575 N   0  0  0  0  0  0  0  0  0  0  0  0
    8.0176    9.9999   22.4308 C   0  0  0  0  0  0  0  0  0  0  0  0
    4.0828   10.4904   26.5766 C   0  0  0  0  0  0  0  0  0  0  0  0
   13.5108    9.1601   17.2145 C   0  0  0  0  0  0  0  0  0  0  0  0
   11.1285   10.2854   20.5055 C   0  0  0  0  0  0  0  0  0  0  0  0
    6.6302   11.7797   21.9116 C   0  0  0  0  0  0  0  0  0  0  0  0
    4.1642   10.1733   25.1822 C   0  0  0  0  0  0  0  0  0  0  0  0
   11.7518    8.6582   18.8681 C   0  0  0  0  0  0  0  0  0  0  0  0
    6.8996   10.8210   22.6687 C   0  0  0  0  0  0  0  0  0  0  0  0
    3.3404    9.4319   24.6276 O   0  0  0  0  0  0  0  0  0  0  0  0
    4.8085   10.9997   24.1716 C   0  0  0  0  0  0  0  0  0  0  0  0
    6.8498    8.2539   23.1738 C   0  0  0  0  0  0  0  0  0  0  0  0
   12.0847    8.7502   17.4027 C   0  0  0  0  0  0  0  0  0  0  0  0
  1  2  2  0
  1  3  1  0
  2 12  1  0
  2 14  1  0
  3 17  2  0
  4  9  1  0
  4 21  1  0
  4 23  2  3
  5  7  1  0
  5  8  1  0
  6 14  1  0
  6 24  1  0
  7 11  1  0
  8 16  1  0
  9 13  2  0
 10 16  2  0
 11 17  1  0
 11 20  1  0
 12 17  1  0
 13 24  1  0
 14 21  1  0
 15 19  1  0
 16 25  1  0
 18 21  2  0
 19 22  1  0
 19 23  1  0
 20 25  1  0
M  END
$$$$
