
     RDKit          3D

 19 20  0  0  0  0  0  0  0  0999 V2000
   -0.1844   -2.7555   17.2887 O   0  0  0  0  0  0  0  0  0  0  0  0
    4.9561   -2.5531   16.7963 O   0  0  0  0  0  0  0  0  0  0  0  0
   -0.8616   -3.8596   15.0668 O   0  0  0  0  0  0  0  0  0  0  0  0
    3.7264   -2.0702   17.3025 C   0  0  0  0  0  0  0  0  0  0  0  0
    2.4976    0.4661   20.3436 C   0  0  0  0  0  0  0  0  0  0  0  0
    2.7757   -1.7134   19.5534 C   0  0  0  0  0  0  0  0  0  0  0  0
    1.5663    0.0179   21.2034 C   0  0  0  0  0  0  0  0  0  0  0  0
    3.4368   -2.6701   18.6409 C   0  0  0  0  0  0  0  0  0  0  0  0
    2.5809   -3.7751   18.4501 O   0  0  0  0  0  0  0  0  0  0  0  0
    1.2223   -1.2882   21.2546 C   0  0  0  0  0  0  0  0  0  0  0  0
    2.7996   -2.6304   15.1651 O   0  0  0  0  0  0  0  0  0  0  0  0
   -0.2337   -4.8883   18.0578 C   0  0  0  0  0  0  0  0  0  0  0  0
    2.5060   -2.4315   16.5286 C   0  0  0  0  0  0  0  0  0  0  0  0
    0.5013   -3.9444   17.1121 C   0  0  0  0  0  0  0  0  0  0  0  0
    0.9039   -5.2000   15.1152 O   0  0  0  0  0  0  0  0  0  0  0  0
    1.9977   -3.7116   17.1705 C   0  0  0  0  0  0  0  0  0  0  0  0
    1.8228   -2.1567   20.4312 C   0  0  0  0  0  0  0  0  0  0  0  0
    0.1643   -4.3745   15.6550 C   0  0  0  0  0  0  0  0  0  0  0  0
    3.1093   -0.4006   19.5067 C   0  0  0  0  0  0  0  0  0  0  0  0
  1 14  1  0
  2  4  1  0
  3 18  1  0
  4  8  1  0
  4 13  1  0
  5  7  2  0
  5 19  1  0
  6  8  1  0
  6 17  1  0
  6 19  2  0
  7 10  1  0
  8  9  1  0
  9 16  1  0
 10 17  2  0
 11 13  1  0
 12 14  1  0
 13 16  1  0
 14 16  1  0
 14 18  1  0
 15 18  2  0
M  END
$$$$
