
     RDKit          3D

 26 27  0  0  0  0  0  0  0  0999 V2000
    2.0270   -0.2681   19.8131 C   0  0  0  0  0  0  0  0  0  0  0  0
   -0.0125   -4.3784   18.8677 O   0  0  0  0  0  0  0  0  0  0  0  0
    1.7211   -4.7813   14.2472 C   0  0  0  0  0  0  0  0  0  0  0  0
   -0.1004   -3.6793   17.9355 C   0  0  0  0  0  0  0  0  0  0  0  0
    3.5764   -2.0442   19.8719 C   0  0  0  0  0  0  0  0  0  0  0  0
    3.6090   -3.3808   20.0367 F   0  0  0  0  0  0  0  0  0  0  0  0
    3.6248   -2.2599   17.2205 C   0  0  0  0  0  0  0  0  0  0  0  0
    0.0532   -0.3487   20.9320 C   0  0  0  0  0  0  0  0  0  0  0  0
   -2.2849   -4.9711   16.5846 O   0  0  0  0  0  0  0  0  0  0  0  0
   -0.6263   -2.7017   18.1873 N   0  0  0  0  0  0  0  0  0  0  0  0
    1.8431   -3.8632   16.4322 C   0  0  0  0  0  0  0  0  0  0  0  0
    2.2739   -1.5067   20.2554 C   0  0  0  0  0  0  0  0  0  0  0  0
    1.4271   -2.1919   21.0381 C   0  0  0  0  0  0  0  0  0  0  0  0
    5.4871   -1.4975   18.4996 O   0  0  0  0  0  0  0  0  0  0  0  0
    0.3933   -4.8444   14.3248 C   0  0  0  0  0  0  0  0  0  0  0  0
    4.6431   -2.6755   16.4214 O   0  0  0  0  0  0  0  0  0  0  0  0
   -0.2495   -4.4626   15.4495 C   0  0  0  0  0  0  0  0  0  0  0  0
    0.9007    0.3272   20.1725 C   0  0  0  0  0  0  0  0  0  0  0  0
    0.4836   -3.9928   16.5644 C   0  0  0  0  0  0  0  0  0  0  0  0
    4.3684   -1.5490   20.7727 F   0  0  0  0  0  0  0  0  0  0  0  0
    4.1289   -1.5984   18.5359 C   0  0  0  0  0  0  0  0  0  0  0  0
    0.2710   -1.5958   21.3558 C   0  0  0  0  0  0  0  0  0  0  0  0
    2.4084   -4.2862   15.2529 C   0  0  0  0  0  0  0  0  0  0  0  0
   -1.6491   -4.6203   15.4860 N   0  0  0  0  0  0  0  0  0  0  0  0
   -2.3970   -4.2836   14.4133 O   0  0  0  0  0  0  0  0  0  0  0  0
    2.6542   -3.3567   17.6003 C   0  0  0  0  0  0  0  0  0  0  0  0
  1 12  2  0
  1 18  1  0
  2  4  2  0
  3 15  1  0
  3 23  2  0
  4 10  1  0
  4 19  1  0
  5  6  1  0
  5 12  1  0
  5 20  1  0
  5 21  1  0
  7 16  1  0
  7 21  1  0
  7 26  1  0
  8 18  2  0
  8 22  1  0
  9 24  2  0
 11 19  2  0
 11 23  1  0
 11 26  1  0
 12 13  1  0
 13 22  2  0
 14 21  1  0
 15 17  2  0
 17 19  1  0
 17 24  1  0
 24 25  1  0
M  CHG  2  24   1  25  -1
M  END
$$$$
