
     RDKit          3D

 26 29  0  0  0  0  0  0  0  0999 V2000
    1.3186   -1.7916   21.7238 C   0  0  0  0  0  0  0  0  0  0  0  0
    1.1218   -3.3689   16.2578 C   0  0  0  0  0  0  0  0  0  0  0  0
    2.7555   -1.4680   18.4508 C   0  0  0  0  0  0  0  0  0  0  0  0
   -1.8931   -4.4727   17.6605 C   0  0  0  0  0  0  0  0  0  0  0  0
    5.3106   -2.5133   16.9434 O   0  0  0  0  0  0  0  0  0  0  0  0
    3.6271   -3.8514   17.8944 O   0  0  0  0  0  0  0  0  0  0  0  0
    2.0041   -2.1579   20.6245 C   0  0  0  0  0  0  0  0  0  0  0  0
   -2.2945   -3.1789   17.8689 C   0  0  0  0  0  0  0  0  0  0  0  0
    0.1799   -4.2837   16.4491 C   0  0  0  0  0  0  0  0  0  0  0  0
   -1.3524   -2.4880   18.9198 C   0  0  0  0  0  0  0  0  0  0  0  0
    0.4406    0.1666   20.8140 C   0  0  0  0  0  0  0  0  0  0  0  0
    1.5280   -2.5257   17.3643 C   0  0  0  0  0  0  0  0  0  0  0  0
    4.4905   -1.6604   20.0714 N   0  0  0  0  0  0  0  0  0  0  0  0
    4.1227   -0.8882   18.9267 C   0  0  0  0  0  0  0  0  0  0  0  0
    3.0620   -2.6481   17.7679 C   0  0  0  0  0  0  0  0  0  0  0  0
    1.7364   -3.1915   15.0308 C   0  0  0  0  0  0  0  0  0  0  0  0
    1.8885   -1.2910   19.5633 C   0  0  0  0  0  0  0  0  0  0  0  0
    1.1217   -0.1735   19.6850 C   0  0  0  0  0  0  0  0  0  0  0  0
   -0.4790   -4.5102   17.6606 N   0  0  0  0  0  0  0  0  0  0  0  0
    1.3519   -4.0384   13.9520 C   0  0  0  0  0  0  0  0  0  0  0  0
   -1.7090   -1.7608   17.5111 C   0  0  0  0  0  0  0  0  0  0  0  0
    4.0351   -2.0569   16.6134 C   0  0  0  0  0  0  0  0  0  0  0  0
   -0.2183   -5.0730   15.3633 C   0  0  0  0  0  0  0  0  0  0  0  0
    0.5165   -0.7008   21.8682 C   0  0  0  0  0  0  0  0  0  0  0  0
    0.3606   -4.9922   14.0910 C   0  0  0  0  0  0  0  0  0  0  0  0
    3.8837    0.4306   19.4827 C   0  0  0  0  0  0  0  0  0  0  0  0
  1  7  1  0
  1 24  2  0
  2  9  1  0
  2 12  1  0
  2 16  2  0
  3 12  1  0
  3 14  1  0
  3 15  1  0
  3 17  1  0
  4  8  1  0
  4 19  1  0
  5 22  1  0
  6 15  2  0
  7 17  2  0
  8 10  1  0
  8 21  1  0
  9 19  1  0
  9 23  2  0
 10 21  1  0
 11 18  2  0
 11 24  1  0
 12 15  1  0
 13 14  1  0
 14 26  1  0
 15 22  1  0
 16 20  1  0
 17 18  1  0
 20 25  2  0
 23 25  1  0
M  END
$$$$
