
     RDKit          3D

 19 19  0  0  0  0  0  0  0  0999 V2000
   11.2597   58.6326   80.1797 C   0  0  0  0  0  0  0  0  0  0  0  0
    9.0450   57.8504   80.3741 O   0  0  0  0  0  0  0  0  0  0  0  0
   14.7887   58.4856   79.6590 C   0  0  0  0  0  0  0  0  0  0  0  0
   10.1697   57.7603   79.5947 C   0  0  0  0  0  0  0  0  0  0  0  0
   14.5952   57.5301   80.7118 C   0  0  0  0  0  0  0  0  0  0  0  0
   18.3647   59.6810   79.7433 C   0  0  0  0  0  0  0  0  0  0  0  0
   15.9268   59.1157   79.7925 N   0  0  0  0  0  0  0  0  0  0  0  0
   17.2481   58.7206   79.5925 C   0  0  0  0  0  0  0  0  0  0  0  0
   10.6157   59.6748   80.8763 O   0  0  0  0  0  0  0  0  0  0  0  0
   14.0264   55.7464   82.6760 N   0  0  0  0  0  0  0  0  0  0  0  0
   15.0210   56.6085   82.8597 C   0  0  0  0  0  0  0  0  0  0  0  0
   13.6169   56.6182   80.5248 N   0  0  0  0  0  0  0  0  0  0  0  0
   15.3235   57.5282   81.9017 C   0  0  0  0  0  0  0  0  0  0  0  0
   12.1407   59.1659   79.1151 C   0  0  0  0  0  0  0  0  0  0  0  0
   13.5707   59.5753   79.6684 C   0  0  0  0  0  0  0  0  0  0  0  0
   13.8384   60.5387   78.7483 O   0  0  0  0  0  0  0  0  0  0  0  0
   13.3508   55.7616   81.5345 C   0  0  0  0  0  0  0  0  0  0  0  0
   17.5230   57.5767   79.3123 O   0  0  0  0  0  0  0  0  0  0  0  0
   15.6880   56.5400   84.0073 N   0  0  0  0  0  0  0  0  0  0  0  0
  1  4  1  0
  1  9  1  0
  1 14  1  0
  2  4  1  0
  3  5  1  0
  3  7  1  0
  3 15  1  0
  5 12  2  0
  5 13  1  0
  6  8  1  0
  7  8  1  0
  8 18  2  0
 10 11  1  0
 10 17  2  0
 11 13  2  0
 11 19  1  0
 12 17  1  0
 14 15  1  0
 15 16  1  0
M  END
$$$$
