
     RDKit          3D

 26 28  0  0  0  0  0  0  0  0999 V2000
   10.6167   59.9806   81.4719 O   0  0  0  0  0  0  0  0  0  0  0  0
   17.9991   56.7909   80.1040 O   0  0  0  0  0  0  0  0  0  0  0  0
   17.6005   57.8697   79.2694 C   0  0  0  0  0  0  0  0  0  0  0  0
   19.6874   58.4816   78.2828 O   0  0  0  0  0  0  0  0  0  0  0  0
   17.9392   60.0409   78.9645 C   0  0  0  0  0  0  0  0  0  0  0  0
   13.5399   55.9811   82.4276 C   0  0  0  0  0  0  0  0  0  0  0  0
   16.1526   57.4895   83.7271 O   0  0  0  0  0  0  0  0  0  0  0  0
   13.9468   57.7684   80.1650 C   0  0  0  0  0  0  0  0  0  0  0  0
   18.7077   58.8412   79.2865 C   0  0  0  0  0  0  0  0  0  0  0  0
   14.8514   56.1561   82.2910 N   0  0  0  0  0  0  0  0  0  0  0  0
   13.3720   56.4723   80.1264 O   0  0  0  0  0  0  0  0  0  0  0  0
   10.4666   59.0955   80.3330 N   0  0  0  0  0  0  0  0  0  0  0  0
   10.2570   56.6639   81.6848 O   0  0  0  0  0  0  0  0  0  0  0  0
   16.7614   59.9140   79.8771 C   0  0  0  0  0  0  0  0  0  0  0  0
   18.8530   61.0679   79.3937 O   0  0  0  0  0  0  0  0  0  0  0  0
   15.6067   56.1994   83.5250 C   0  0  0  0  0  0  0  0  0  0  0  0
   15.3917   57.8689   80.7600 C   0  0  0  0  0  0  0  0  0  0  0  0
   15.6538   56.6431   81.2813 O   0  0  0  0  0  0  0  0  0  0  0  0
   12.6508   56.2190   81.3056 C   0  0  0  0  0  0  0  0  0  0  0  0
   11.5383   57.2195   81.5602 C   0  0  0  0  0  0  0  0  0  0  0  0
   12.8967   58.7844   80.0619 C   0  0  0  0  0  0  0  0  0  0  0  0
   15.6825   60.9089   79.9733 O   0  0  0  0  0  0  0  0  0  0  0  0
   16.2451   58.5420   79.6139 C   0  0  0  0  0  0  0  0  0  0  0  0
   13.0005   55.5568   83.4514 O   0  0  0  0  0  0  0  0  0  0  0  0
   11.5568   58.2397   80.4332 C   0  0  0  0  0  0  0  0  0  0  0  0
   12.8886   59.7475   79.1426 O   0  0  0  0  0  0  0  0  0  0  0  0
  1 12  1  0
  2  3  1  0
  3  9  1  0
  3 23  1  0
  4  9  1  0
  5  9  1  0
  5 14  1  0
  5 15  1  0
  6 10  1  0
  6 19  1  0
  6 24  2  0
  7 16  1  0
  8 11  1  0
  8 17  1  0
  8 21  1  0
 10 16  1  0
 10 18  1  0
 11 19  1  0
 12 25  1  0
 13 20  1  0
 14 22  1  0
 14 23  1  0
 17 18  1  0
 17 23  1  0
 19 20  1  0
 20 25  1  0
 21 25  1  0
 21 26  1  0
M  END
$$$$
