
     RDKit          3D

 12 12  0  0  0  0  0  0  0  0999 V2000
   13.0063   59.4535   78.3781 O   0  0  0  0  0  0  0  0  0  0  0  0
   16.3247   57.0323   81.5384 N   0  0  0  0  0  0  0  0  0  0  0  0
   16.1659   56.8196   80.2613 C   0  0  0  0  0  0  0  0  0  0  0  0
   13.0134   57.7156   80.2957 O   0  0  0  0  0  0  0  0  0  0  0  0
   14.0851   57.1994   80.3198 C   0  0  0  0  0  0  0  0  0  0  0  0
   12.3856   60.1532   80.7688 O   0  0  0  0  0  0  0  0  0  0  0  0
   14.1767   57.7613   81.7620 C   0  0  0  0  0  0  0  0  0  0  0  0
   15.4193   57.1987   82.4581 C   0  0  0  0  0  0  0  0  0  0  0  0
   15.3974   57.6504   79.8751 C   0  0  0  0  0  0  0  0  0  0  0  0
   15.5747   57.1067   83.7010 O   0  0  0  0  0  0  0  0  0  0  0  0
   12.2281   59.0237   79.6889 P   0  0  0  0  0  0  0  0  0  0  0  0
   10.7871   58.6795   79.2455 O   0  0  0  0  0  0  0  0  0  0  0  0
  1 11  1  0
  2  3  1  0
  2  8  1  0
  3  9  1  0
  4  5  1  0
  4 11  1  0
  5  7  1  0
  5  9  1  0
  6 11  2  0
  7  8  1  0
  8 10  2  0
 11 12  1  0
M  END
$$$$
