
     RDKit          3D

 12 13  0  0  0  0  0  0  0  0999 V2000
   26.4933    5.1710   -8.5803 C   0  0  0  0  0  0  0  0  0  0  0  0
   23.7127    3.5999   -5.9339 C   0  0  0  0  0  0  0  0  0  0  0  0
   24.2622    3.9200   -7.2648 C   0  0  0  0  0  0  0  0  0  0  0  0
   24.0555    5.7233   -8.6939 C   0  0  0  0  0  0  0  0  0  0  0  0
   25.2345    5.1795   -9.4821 C   0  0  0  0  0  0  0  0  0  0  0  0
   26.1633    2.3656   -7.5943 O   0  0  0  0  0  0  0  0  0  0  0  0
   24.2766    4.2412   -4.7380 O   0  0  0  0  0  0  0  0  0  0  0  0
   25.6384    3.5374   -7.5175 C   0  0  0  0  0  0  0  0  0  0  0  0
   22.5468    5.5964   -6.7759 C   0  0  0  0  0  0  0  0  0  0  0  0
   23.9076    5.3920   -7.3674 C   0  0  0  0  0  0  0  0  0  0  0  0
   26.2783    4.9777   -7.6842 C   0  0  0  0  0  0  0  0  0  0  0  0
   22.3388    4.3241   -5.9507 C   0  0  0  0  0  0  0  0  0  0  0  0
  1  5  1  0
  1 11  1  0
  2  3  1  0
  2  7  1  0
  2 12  1  0
  3  8  1  0
  3 10  1  0
  4  5  1  0
  4 10  1  0
  6  8  2  0
  8 11  1  0
  9 10  1  0
  9 12  1  0
M  END
$$$$
