
     RDKit          3D

 26 29  0  0  0  0  0  0  0  0999 V2000
   25.6921   21.3419   18.7321 C   0  0  0  0  0  0  0  0  0  0  0  0
   20.3308   25.6124   22.1540 N   0  0  0  0  0  0  0  0  0  0  0  0
   26.5362   22.2781   17.4578 Cl  0  0  0  0  0  0  0  0  0  0  0  0
   21.3725   24.7422   22.1109 C   0  0  0  0  0  0  0  0  0  0  0  0
   19.6560   21.1731   20.2726 C   0  0  0  0  0  0  0  0  0  0  0  0
   23.2141   23.8889   22.3927 N   0  0  0  0  0  0  0  0  0  0  0  0
   26.1102   20.0938   19.1184 C   0  0  0  0  0  0  0  0  0  0  0  0
   22.5615   22.9377   21.7779 C   0  0  0  0  0  0  0  0  0  0  0  0
   24.0713   21.3105   20.4537 C   0  0  0  0  0  0  0  0  0  0  0  0
   24.5088   20.0431   20.8209 C   0  0  0  0  0  0  0  0  0  0  0  0
   19.2334   25.0438   21.4799 C   0  0  0  0  0  0  0  0  0  0  0  0
   19.2439   21.4035   17.8375 C   0  0  0  0  0  0  0  0  0  0  0  0
   21.8207   20.8855   21.0053 N   0  0  0  0  0  0  0  0  0  0  0  0
   19.0413   25.4302   20.0661 C   0  0  0  0  0  0  0  0  0  0  0  0
   23.0016   21.6286   21.3875 C   0  0  0  0  0  0  0  0  0  0  0  0
   25.5275   19.4373   20.1574 C   0  0  0  0  0  0  0  0  0  0  0  0
   18.7801   21.3549   19.1689 C   0  0  0  0  0  0  0  0  0  0  0  0
   22.5630   24.9249   22.6137 N   0  0  0  0  0  0  0  0  0  0  0  0
   20.5886   21.3121   17.6099 C   0  0  0  0  0  0  0  0  0  0  0  0
   20.9976   21.0859   19.9814 C   0  0  0  0  0  0  0  0  0  0  0  0
   21.2637   23.5323   21.5692 N   0  0  0  0  0  0  0  0  0  0  0  0
   23.5860   20.8837   22.9663 S   0  0  0  0  0  0  0  0  0  0  0  0
   18.3663   24.3093   21.9647 O   0  0  0  0  0  0  0  0  0  0  0  0
   21.4211   21.1582   18.6721 C   0  0  0  0  0  0  0  0  0  0  0  0
   24.6551   21.9087   19.3638 C   0  0  0  0  0  0  0  0  0  0  0  0
   23.8326   19.4430   22.0053 C   0  0  0  0  0  0  0  0  0  0  0  0
  1  3  1  0
  1  7  1  0
  1 25  2  0
  2  4  1  0
  2 11  1  0
  4 18  1  0
  4 21  2  0
  5 17  1  0
  5 20  2  0
  6  8  2  0
  6 18  1  0
  7 16  2  0
  8 15  1  0
  8 21  1  0
  9 10  2  0
  9 15  1  0
  9 25  1  0
 10 16  1  0
 10 26  1  0
 11 14  1  0
 11 23  2  0
 12 17  2  0
 12 19  1  0
 13 15  1  0
 13 20  1  0
 15 22  1  0
 19 24  2  0
 20 24  1  0
 22 26  1  0
M  END
$$$$
