
     RDKit          3D

 21 23  0  0  0  0  0  0  0  0999 V2000
   18.9833   24.7511   21.2772 C   0  0  0  0  0  0  0  0  0  0  0  0
   20.0905   20.6834   20.5838 C   0  0  0  0  0  0  0  0  0  0  0  0
   24.5172   21.9878   17.1479 C   0  0  0  0  0  0  0  0  0  0  0  0
   20.1593   18.3491   20.3074 F   0  0  0  0  0  0  0  0  0  0  0  0
   25.0722   21.3113   18.3473 C   0  0  0  0  0  0  0  0  0  0  0  0
   22.1435   21.9044   20.0079 C   0  0  0  0  0  0  0  0  0  0  0  0
   20.8750   21.8825   20.5283 C   0  0  0  0  0  0  0  0  0  0  0  0
   26.4626   20.4765   19.7793 N   0  0  0  0  0  0  0  0  0  0  0  0
   22.1464   19.4477   19.8602 C   0  0  0  0  0  0  0  0  0  0  0  0
   20.7575   19.4876   20.2723 C   0  0  0  0  0  0  0  0  0  0  0  0
   20.1333   25.1947   21.8950 C   0  0  0  0  0  0  0  0  0  0  0  0
   17.6482   25.2170   21.0706 C   0  0  0  0  0  0  0  0  0  0  0  0
   22.8776   20.7882   19.6635 C   0  0  0  0  0  0  0  0  0  0  0  0
   26.3634   21.0639   18.5475 N   0  0  0  0  0  0  0  0  0  0  0  0
   25.2684   20.3857   20.2533 C   0  0  0  0  0  0  0  0  0  0  0  0
   19.0426   23.5106   20.7084 N   0  0  0  0  0  0  0  0  0  0  0  0
   22.3192   24.2616   22.2440 C   0  0  0  0  0  0  0  0  0  0  0  0
   20.9360   24.1260   21.6725 N   0  0  0  0  0  0  0  0  0  0  0  0
   20.2940   23.1285   20.9652 C   0  0  0  0  0  0  0  0  0  0  0  0
   24.2982   20.8424   19.4317 C   0  0  0  0  0  0  0  0  0  0  0  0
   25.0961   19.8156   21.6014 C   0  0  0  0  0  0  0  0  0  0  0  0
  1 11  2  0
  1 12  1  0
  1 16  1  0
  2  7  2  0
  2 10  1  0
  3  5  1  0
  4 10  1  0
  5 14  1  0
  5 20  1  0
  6  7  1  0
  6 13  2  0
  7 19  1  0
  8 14  2  0
  8 15  1  0
  9 10  2  0
  9 13  1  0
 11 18  1  0
 13 20  1  0
 15 20  2  0
 15 21  1  0
 16 19  2  0
 17 18  1  0
 18 19  1  0
M  END
$$$$
