
     RDKit          3D

 23 25  0  0  0  0  0  0  0  0999 V2000
   25.5326   20.4547   19.9788 C   0  0  0  0  0  0  0  0  0  0  0  0
   23.4278   21.3320   19.3926 C   0  0  0  0  0  0  0  0  0  0  0  0
   26.3048   19.5670   20.6659 N   0  0  0  0  0  0  0  0  0  0  0  0
   21.0592   24.8913   22.6136 O   0  0  0  0  0  0  0  0  0  0  0  0
   21.9970   21.3738   19.4718 C   0  0  0  0  0  0  0  0  0  0  0  0
   19.6820   23.6901   21.1674 C   0  0  0  0  0  0  0  0  0  0  0  0
   19.0853   21.5810   19.5142 C   0  0  0  0  0  0  0  0  0  0  0  0
   21.1278   20.5010   18.7672 C   0  0  0  0  0  0  0  0  0  0  0  0
   26.1549   22.7435   17.3797 N   0  0  0  0  0  0  0  0  0  0  0  0
   18.5446   24.2311   21.4161 C   0  0  0  0  0  0  0  0  0  0  0  0
   19.7183   20.6422   18.7813 C   0  0  0  0  0  0  0  0  0  0  0  0
   21.8298   23.2415   21.0871 N   0  0  0  0  0  0  0  0  0  0  0  0
   26.2118   21.1699   19.0781 N   0  0  0  0  0  0  0  0  0  0  0  0
   23.4939   22.9369   22.8408 C   0  0  0  0  0  0  0  0  0  0  0  0
   17.6489   24.6804   21.6058 N   0  0  0  0  0  0  0  0  0  0  0  0
   20.8713   24.0462   21.7236 C   0  0  0  0  0  0  0  0  0  0  0  0
   23.2123   23.4773   21.4418 C   0  0  0  0  0  0  0  0  0  0  0  0
   19.9489   22.5245   20.2495 C   0  0  0  0  0  0  0  0  0  0  0  0
   24.0915   22.1150   18.4469 C   0  0  0  0  0  0  0  0  0  0  0  0
   21.2971   22.3220   20.2108 C   0  0  0  0  0  0  0  0  0  0  0  0
   23.5056   19.4592   21.1337 C   0  0  0  0  0  0  0  0  0  0  0  0
   25.4723   21.9923   18.3402 C   0  0  0  0  0  0  0  0  0  0  0  0
   24.1482   20.3972   20.2247 C   0  0  0  0  0  0  0  0  0  0  0  0
  1  3  1  0
  1 13  4  0
  1 23  4  0
  2  5  1  0
  2 19  4  0
  2 23  4  0
  4 16  2  0
  5  8  4  0
  5 20  4  0
  6 10  1  0
  6 16  1  0
  6 18  2  0
  7 11  4  0
  7 18  4  0
  8 11  4  0
  9 22  1  0
 10 15  3  0
 12 16  1  0
 12 17  1  0
 12 20  1  0
 13 22  4  0
 14 17  1  0
 18 20  4  0
 19 22  4  0
 21 23  1  0
M  END
$$$$
