
     RDKit          3D

 20 20  0  0  0  0  0  0  0  0999 V2000
   19.6129   23.7219   20.9653 C   0  0  0  0  0  0  0  0  0  0  0  0
   22.8638   23.2184   21.4054 O   0  0  0  0  0  0  0  0  0  0  0  0
   24.4267   22.3749   17.5056 C   0  0  0  0  0  0  0  0  0  0  0  0
   20.5580   19.2526   20.0529 C   0  0  0  0  0  0  0  0  0  0  0  0
   24.7790   20.6035   21.8507 C   0  0  0  0  0  0  0  0  0  0  0  0
   19.7435   25.0484   21.3175 C   0  0  0  0  0  0  0  0  0  0  0  0
   20.4276   20.7092   20.0328 C   0  0  0  0  0  0  0  0  0  0  0  0
   25.8491   22.6513   17.0900 C   0  0  0  0  0  0  0  0  0  0  0  0
   22.2207   18.8050   20.3873 S   0  0  0  0  0  0  0  0  0  0  0  0
   18.5619   25.8061   21.3657 C   0  0  0  0  0  0  0  0  0  0  0  0
   22.8444   20.4542   20.5026 C   0  0  0  0  0  0  0  0  0  0  0  0
   20.7826   25.6371   21.7945 O   0  0  0  0  0  0  0  0  0  0  0  0
   18.6164   23.0957   20.6188 O   0  0  0  0  0  0  0  0  0  0  0  0
   25.0256   20.8678   19.5173 C   0  0  0  0  0  0  0  0  0  0  0  0
   21.7710   21.3108   20.2802 C   0  0  0  0  0  0  0  0  0  0  0  0
   24.1896   20.6685   20.6680 N   0  0  0  0  0  0  0  0  0  0  0  0
   20.7705   23.4054   21.0344 N   0  0  0  0  0  0  0  0  0  0  0  0
   24.2568   21.1749   18.2155 C   0  0  0  0  0  0  0  0  0  0  0  0
   25.4545   21.5063   22.2821 O   0  0  0  0  0  0  0  0  0  0  0  0
   21.7775   22.6594   20.7032 C   0  0  0  0  0  0  0  0  0  0  0  0
  1  6  1  0
  1 13  2  0
  1 17  1  0
  2 20  2  0
  3  8  1  0
  3 18  1  0
  4  7  2  0
  4  9  1  0
  5 16  1  0
  5 19  2  0
  6 10  1  0
  6 12  2  0
  7 15  1  0
  9 11  1  0
 11 15  2  0
 11 16  1  0
 14 16  1  0
 14 18  1  0
 15 20  1  0
 17 20  1  0
M  END
$$$$
