
     RDKit          3D

 41 47  0  0  0  0  0  0  0  0999 V2000
   20.3678   26.3813   21.3442 C   0  0  0  0  0  0  0  0  0  0  0  0
   25.9105   23.5308   18.6518 C   0  0  0  0  0  0  0  0  0  0  0  0
   22.1108   18.1528   20.5867 C   0  0  0  0  0  0  0  0  0  0  0  0
   25.1854   23.0016   17.6738 C   0  0  0  0  0  0  0  0  0  0  0  0
   22.6498   23.7767   22.3579 C   0  0  0  0  0  0  0  0  0  0  0  0
   19.1610   25.8164   20.7762 C   0  0  0  0  0  0  0  0  0  0  0  0
   22.9845   22.8301   17.7004 C   0  0  0  0  0  0  0  0  0  0  0  0
   21.9862   17.0150   21.2100 C   0  0  0  0  0  0  0  0  0  0  0  0
   24.1447   19.3487   20.1679 C   0  0  0  0  0  0  0  0  0  0  0  0
   21.5137   25.7502   21.6563 C   0  0  0  0  0  0  0  0  0  0  0  0
   24.2451   21.8298   19.5562 C   0  0  0  0  0  0  0  0  0  0  0  0
   26.0967   22.2008   16.7513 C   0  0  0  0  0  0  0  0  0  0  0  0
   19.6037   23.5126   22.5943 O   0  0  0  0  0  0  0  0  0  0  0  0
   20.0093   21.1206   20.9189 C   0  0  0  0  0  0  0  0  0  0  0  0
   25.5956   21.6613   20.1788 C   0  0  0  0  0  0  0  0  0  0  0  0
   19.3501   22.0603   19.9235 C   0  0  0  0  0  0  0  0  0  0  0  0
   21.7339   22.1501   17.1767 C   0  0  0  0  0  0  0  0  0  0  0  0
   24.7403   22.4569   22.2706 C   0  0  0  0  0  0  0  0  0  0  0  0
   21.1604   22.0061   21.4876 C   0  0  0  0  0  0  0  0  0  0  0  0
   19.8372   23.4686   20.1768 C   0  0  0  0  0  0  0  0  0  0  0  0
   18.6675   24.4850   20.2301 C   0  0  0  0  0  0  0  0  0  0  0  0
   24.4022   18.7418   21.6267 C   0  0  0  0  0  0  0  0  0  0  0  0
   22.6373   23.7592   19.0563 C   0  0  0  0  0  0  0  0  0  0  0  0
   23.9242   23.3207   21.5917 C   0  0  0  0  0  0  0  0  0  0  0  0
   26.4872   22.7672   19.7278 C   0  0  0  0  0  0  0  0  0  0  0  0
   17.4644   24.0286   21.0831 C   0  0  0  0  0  0  0  0  0  0  0  0
   23.4213   20.7204   20.0977 C   0  0  0  0  0  0  0  0  0  0  0  0
   27.7373   22.1380   19.4405 O   0  0  0  0  0  0  0  0  0  0  0  0
   20.7331   20.1261   20.1750 C   0  0  0  0  0  0  0  0  0  0  0  0
   21.6389   24.3790   21.6883 C   0  0  0  0  0  0  0  0  0  0  0  0
   21.4223   21.2801   22.7048 O   0  0  0  0  0  0  0  0  0  0  0  0
   21.0163   18.8418   20.6557 C   0  0  0  0  0  0  0  0  0  0  0  0
   23.0173   18.6034   19.5215 C   0  0  0  0  0  0  0  0  0  0  0  0
   25.5381   21.6423   21.6435 C   0  0  0  0  0  0  0  0  0  0  0  0
   20.1389   18.0472   21.1593 C   0  0  0  0  0  0  0  0  0  0  0  0
   22.4675   26.6052   22.0842 O   0  0  0  0  0  0  0  0  0  0  0  0
   20.5625   23.4148   21.5105 C   0  0  0  0  0  0  0  0  0  0  0  0
   24.1709   22.0512   18.1159 C   0  0  0  0  0  0  0  0  0  0  0  0
   23.7685   23.2235   20.1161 C   0  0  0  0  0  0  0  0  0  0  0  0
   18.7415   18.3994   21.2962 C   0  0  0  0  0  0  0  0  0  0  0  0
   20.7021   16.8852   21.5001 N   0  0  0  0  0  0  0  0  0  0  0  0
  1  6  2  0
  1 10  1  0
  2  4  1  0
  2 25  1  0
  3  8  2  0
  3 32  1  0
  3 33  1  0
  4 12  1  0
  4 38  1  0
  5 24  1  0
  5 30  1  0
  6 21  1  0
  7 17  1  0
  7 23  1  0
  7 38  1  0
  8 41  1  0
  9 22  1  0
  9 27  1  0
  9 33  1  0
 10 30  2  0
 10 36  1  0
 11 15  1  0
 11 27  1  0
 11 38  1  0
 11 39  1  0
 13 37  1  0
 14 16  1  0
 14 19  1  0
 14 29  1  0
 15 25  1  0
 15 34  1  0
 16 20  1  0
 18 24  2  0
 18 34  1  0
 19 31  1  0
 19 37  1  0
 20 21  1  0
 20 37  1  0
 21 26  1  0
 23 39  1  0
 24 39  1  0
 25 28  1  0
 29 32  1  0
 30 37  1  0
 32 35  2  0
 35 40  1  0
 35 41  1  0
M  END
$$$$
