
     RDKit          3D

 12 12  0  0  0  0  0  0  0  0999 V2000
  -13.8879   -7.7064   22.4986 C   0  0  0  0  0  0  0  0  0  0  0  0
  -12.3456  -10.2870   24.5448 C   0  0  0  0  0  0  0  0  0  0  0  0
  -13.2786   -9.7611   23.6374 C   0  0  0  0  0  0  0  0  0  0  0  0
  -10.7246   -8.9534   25.5729 O   0  0  0  0  0  0  0  0  0  0  0  0
  -11.7621   -9.0419   24.8266 C   0  0  0  0  0  0  0  0  0  0  0  0
  -12.4814   -7.7650   24.6153 C   0  0  0  0  0  0  0  0  0  0  0  0
  -13.6127   -8.3469   23.8016 C   0  0  0  0  0  0  0  0  0  0  0  0
  -13.8783   -6.4116   25.9838 O   0  0  0  0  0  0  0  0  0  0  0  0
  -12.6784   -7.6873   21.6633 O   0  0  0  0  0  0  0  0  0  0  0  0
  -11.2779  -10.9397   23.9132 O   0  0  0  0  0  0  0  0  0  0  0  0
  -12.6322   -7.1396   25.8963 C   0  0  0  0  0  0  0  0  0  0  0  0
  -14.0097  -10.4819   22.9743 O   0  0  0  0  0  0  0  0  0  0  0  0
  1  7  1  0
  1  9  1  0
  2  3  1  0
  2  5  1  0
  2 10  1  0
  3  7  1  0
  3 12  2  0
  4  5  2  0
  5  6  1  0
  6  7  1  0
  6 11  1  0
  8 11  1  0
M  END
$$$$
