
     RDKit          3D

 23 26  0  0  0  0  0  0  0  0999 V2000
   12.4230  -14.7413  -11.2665 C   0  0  0  0  0  0  0  0  0  0  0  0
    7.8736  -21.4013  -11.8581 C   0  0  0  0  0  0  0  0  0  0  0  0
   11.5220  -18.5362  -11.5308 C   0  0  0  0  0  0  0  0  0  0  0  0
   15.3443  -21.2661  -10.4694 C   0  0  0  0  0  0  0  0  0  0  0  0
    9.3502  -19.6194  -12.5220 C   0  0  0  0  0  0  0  0  0  0  0  0
   13.5593  -17.3801  -10.5877 C   0  0  0  0  0  0  0  0  0  0  0  0
   14.1967  -18.7016  -10.4474 C   0  0  0  0  0  0  0  0  0  0  0  0
   15.9746  -22.9540  -10.6119 Cl  0  0  0  0  0  0  0  0  0  0  0  0
   12.1809  -19.7270  -11.4171 N   0  0  0  0  0  0  0  0  0  0  0  0
    8.3206  -21.0247  -14.2150 C   0  0  0  0  0  0  0  0  0  0  0  0
    7.6669  -21.7494  -13.2198 C   0  0  0  0  0  0  0  0  0  0  0  0
    9.6505  -17.3957  -12.3928 N   0  0  0  0  0  0  0  0  0  0  0  0
   16.1165  -20.1604   -9.9949 C   0  0  0  0  0  0  0  0  0  0  0  0
   15.5600  -18.8764   -9.9893 C   0  0  0  0  0  0  0  0  0  0  0  0
   14.2385  -16.1448  -10.1979 C   0  0  0  0  0  0  0  0  0  0  0  0
   14.0755  -21.1112  -10.8916 C   0  0  0  0  0  0  0  0  0  0  0  0
   11.4996  -15.9357  -11.3099 C   0  0  0  0  0  0  0  0  0  0  0  0
   12.1940  -17.3026  -11.1174 C   0  0  0  0  0  0  0  0  0  0  0  0
   13.4430  -14.8440  -10.1594 C   0  0  0  0  0  0  0  0  0  0  0  0
   13.5083  -19.8009  -10.8639 C   0  0  0  0  0  0  0  0  0  0  0  0
    8.6969  -20.3401  -11.5206 C   0  0  0  0  0  0  0  0  0  0  0  0
    9.1630  -19.9638  -13.8655 C   0  0  0  0  0  0  0  0  0  0  0  0
   10.1853  -18.4824  -12.0984 C   0  0  0  0  0  0  0  0  0  0  0  0
  1 17  1  0
  1 19  1  0
  2 11  2  0
  2 21  1  0
  3  9  1  0
  3 18  2  0
  3 23  1  0
  4  8  1  0
  4 13  1  0
  4 16  2  0
  5 21  2  0
  5 22  1  0
  5 23  1  0
  6  7  2  0
  6 15  1  0
  6 18  1  0
  7 14  1  0
  7 20  1  0
  9 20  2  0
 10 11  1  0
 10 22  2  0
 12 23  2  0
 13 14  2  0
 15 19  1  0
 16 20  1  0
 17 18  1  0
M  END
$$$$
