
     RDKit          3D

 14 15  0  0  0  0  0  0  0  0999 V2000
   13.5915  -18.6919   -9.3117 C   0  0  0  0  0  0  0  0  0  0  0  0
    8.6976  -16.9989  -13.9422 O   0  0  0  0  0  0  0  0  0  0  0  0
   13.5081  -20.6890  -10.0611 C   0  0  0  0  0  0  0  0  0  0  0  0
   12.7034  -18.6874  -10.2012 N   0  0  0  0  0  0  0  0  0  0  0  0
   10.9378  -18.1059  -11.5382 C   0  0  0  0  0  0  0  0  0  0  0  0
    8.8854  -17.5766  -12.9188 C   0  0  0  0  0  0  0  0  0  0  0  0
   11.2926  -15.4672  -10.9151 C   0  0  0  0  0  0  0  0  0  0  0  0
   12.6006  -19.8566  -10.6895 C   0  0  0  0  0  0  0  0  0  0  0  0
   12.1474  -16.3971  -10.3937 C   0  0  0  0  0  0  0  0  0  0  0  0
    8.1743  -18.6417  -12.5918 N   0  0  0  0  0  0  0  0  0  0  0  0
   11.9439  -17.7420  -10.6474 C   0  0  0  0  0  0  0  0  0  0  0  0
   10.0402  -17.1796  -12.0388 C   0  0  0  0  0  0  0  0  0  0  0  0
   14.1099  -19.9237   -9.2287 N   0  0  0  0  0  0  0  0  0  0  0  0
   10.2820  -15.8618  -11.7437 C   0  0  0  0  0  0  0  0  0  0  0  0
  1  4  1  0
  1 13  2  0
  2  6  2  0
  3  8  2  0
  3 13  1  0
  4  8  1  0
  4 11  1  0
  5 11  1  0
  5 12  2  0
  6 10  1  0
  6 12  1  0
  7  9  1  0
  7 14  2  0
  9 11  2  0
 12 14  1  0
M  END
$$$$
