
     RDKit          3D

 18 19  0  0  0  0  0  0  0  0999 V2000
    9.4637  -19.8152  -11.8886 C   0  0  0  0  0  0  0  0  0  0  0  0
   14.2347  -18.2374   -9.4816 C   0  0  0  0  0  0  0  0  0  0  0  0
    9.1357  -17.4845  -12.7219 C   0  0  0  0  0  0  0  0  0  0  0  0
   13.3558  -17.0736   -9.1892 C   0  0  0  0  0  0  0  0  0  0  0  0
    8.1468  -20.0913  -12.2529 C   0  0  0  0  0  0  0  0  0  0  0  0
   15.5336  -18.0794   -9.9763 C   0  0  0  0  0  0  0  0  0  0  0  0
   14.3702  -20.7101   -9.7750 C   0  0  0  0  0  0  0  0  0  0  0  0
    7.3361  -19.1245  -12.8374 C   0  0  0  0  0  0  0  0  0  0  0  0
   12.7651  -15.2623  -10.5626 N   0  0  0  0  0  0  0  0  0  0  0  0
    7.8193  -17.8192  -13.0785 C   0  0  0  0  0  0  0  0  0  0  0  0
   12.6138  -16.3925  -10.3174 N   0  0  0  0  0  0  0  0  0  0  0  0
   11.4607  -17.1233  -10.6245 C   0  0  0  0  0  0  0  0  0  0  0  0
   13.7003  -19.5020   -9.3263 C   0  0  0  0  0  0  0  0  0  0  0  0
   16.2016  -19.2472  -10.3670 C   0  0  0  0  0  0  0  0  0  0  0  0
   14.0225  -14.6977  -10.3441 O   0  0  0  0  0  0  0  0  0  0  0  0
   11.4011  -18.1935  -11.7774 C   0  0  0  0  0  0  0  0  0  0  0  0
   15.5220  -20.6845  -10.3529 C   0  0  0  0  0  0  0  0  0  0  0  0
    9.9687  -18.5023  -12.1345 C   0  0  0  0  0  0  0  0  0  0  0  0
  1  5  1  0
  1 18  2  0
  2  4  1  0
  2  6  1  0
  2 13  2  0
  3 10  2  0
  3 18  1  0
  4 11  1  0
  5  8  2  0
  6 14  2  0
  7 13  1  0
  7 17  2  0
  8 10  1  0
  9 11  1  0
  9 15  1  0
 11 12  1  0
 12 16  1  0
 14 17  1  0
 16 18  1  0
M  END
$$$$
