
     RDKit          3D

  6  5  0  0  0  0  0  0  0  0999 V2000
  -20.7501   23.9194   -3.4336 O   0  0  0  0  0  0  0  0  0  0  0  0
  -21.4717   24.9572   -3.4018 C   0  0  0  0  0  0  0  0  0  0  0  0
  -22.6237   25.1364   -4.2834 C   0  0  0  0  0  0  0  0  0  0  0  0
  -22.3466   25.6251   -5.4668 O   0  0  0  0  0  0  0  0  0  0  0  0
  -23.9608   24.8880   -3.7940 C   0  0  0  0  0  0  0  0  0  0  0  0
  -21.2050   25.8652   -2.5891 O   0  0  0  0  0  0  0  0  0  0  0  0
  1  2  1  0
  2  3  1  0
  2  6  2  0
  3  4  2  0
  3  5  1  0
M  END
$$$$
