
     RDKit          3D

 13 14  0  0  0  0  0  0  0  0999 V2000
   24.1344    9.7442   30.2512 C   0  0  0  0  0  0  0  0  0  0  0  0
   22.8681    9.7874   29.6104 C   0  0  0  0  0  0  0  0  0  0  0  0
   24.2108    6.1030   26.9246 C   0  0  0  0  0  0  0  0  0  0  0  0
   22.8223    5.0809   25.3154 O   0  0  0  0  0  0  0  0  0  0  0  0
   25.8072    7.0389   28.5069 C   0  0  0  0  0  0  0  0  0  0  0  0
   23.8897    5.1136   25.9381 C   0  0  0  0  0  0  0  0  0  0  0  0
   22.5796    8.9113   28.6450 C   0  0  0  0  0  0  0  0  0  0  0  0
   23.2518    7.0398   27.2898 C   0  0  0  0  0  0  0  0  0  0  0  0
   24.8423    7.9826   28.9035 C   0  0  0  0  0  0  0  0  0  0  0  0
   25.5056    6.0964   27.5241 C   0  0  0  0  0  0  0  0  0  0  0  0
   23.5611    7.9879   28.2910 C   0  0  0  0  0  0  0  0  0  0  0  0
   24.8620    4.1792   25.6881 N   0  0  0  0  0  0  0  0  0  0  0  0
   25.1414    8.8906   29.8839 C   0  0  0  0  0  0  0  0  0  0  0  0
  1  2  2  0
  1 13  1  0
  2  7  1  0
  3  6  1  0
  3  8  2  0
  3 10  1  0
  4  6  2  0
  5  9  1  0
  5 10  2  0
  6 12  1  0
  7 11  2  0
  8 11  1  0
  9 11  1  0
  9 13  2  0
M  END
