
     RDKit          3D

 14 14  0  0  0  0  0  0  0  0999 V2000
   20.8766   -8.2676    7.5036 C   0  0  0  0  0  0  0  0  0  0  0  0
   17.7767  -14.1991    5.5947 C   0  0  0  0  0  0  0  0  0  0  0  0
   19.9262   -6.0428    6.8045 Cl  0  0  0  0  0  0  0  0  0  0  0  0
   19.1573   -9.8150    5.9976 C   0  0  0  0  0  0  0  0  0  0  0  0
   20.9792   -9.6612    7.5033 C   0  0  0  0  0  0  0  0  0  0  0  0
   19.9289   -7.7101    6.7400 C   0  0  0  0  0  0  0  0  0  0  0  0
   21.0459  -12.4658    5.5206 C   0  0  0  0  0  0  0  0  0  0  0  0
   19.0395   -8.4270    5.9910 C   0  0  0  0  0  0  0  0  0  0  0  0
   16.6446  -14.2493    6.0371 O   0  0  0  0  0  0  0  0  0  0  0  0
   18.1261  -14.6100    4.2218 N   0  0  0  0  0  0  0  0  0  0  0  0
   18.9725  -13.8361    6.1945 N   0  0  0  0  0  0  0  0  0  0  0  0
   20.3373  -11.8923    6.7568 C   0  0  0  0  0  0  0  0  0  0  0  0
   20.1427  -10.4400    6.7460 C   0  0  0  0  0  0  0  0  0  0  0  0
   18.9617  -12.4525    6.6574 C   0  0  0  0  0  0  0  0  0  0  0  0
  1  5  2  0
  1  6  1  0
  2  9  2  0
  2 10  1  0
  2 11  1  0
  3  6  1  0
  4  8  1  0
  4 13  2  0
  5 13  1  0
  6  8  2  0
  7 12  1  0
 11 14  1  0
 12 13  1  0
 12 14  1  0
M  END
$$$$
