
     RDKit          3D

 23 26  0  0  0  0  0  0  0  0999 V2000
   20.0325  -11.6742    7.0281 C   0  0  0  0  0  0  0  0  0  0  0  0
   14.9941  -13.8492    6.4386 C   0  0  0  0  0  0  0  0  0  0  0  0
   19.9531   -6.4121    7.2863 C   0  0  0  0  0  0  0  0  0  0  0  0
   20.7541   -8.6643    7.3605 O   0  0  0  0  0  0  0  0  0  0  0  0
   16.8804   -9.6576    6.2304 C   0  0  0  0  0  0  0  0  0  0  0  0
   19.1774   -6.7504    6.2456 O   0  0  0  0  0  0  0  0  0  0  0  0
   17.0862  -12.0509    7.0840 C   0  0  0  0  0  0  0  0  0  0  0  0
   21.9490   -7.0069    7.9542 O   0  0  0  0  0  0  0  0  0  0  0  0
   19.6904  -12.9513    6.2710 C   0  0  0  0  0  0  0  0  0  0  0  0
   18.6779   -8.0446    6.3898 C   0  0  0  0  0  0  0  0  0  0  0  0
   19.0691  -10.4952    6.9837 C   0  0  0  0  0  0  0  0  0  0  0  0
   17.3807   -8.3741    6.0836 C   0  0  0  0  0  0  0  0  0  0  0  0
   21.2946  -11.2409    6.6416 O   0  0  0  0  0  0  0  0  0  0  0  0
   14.9155  -13.0433    7.6375 N   0  0  0  0  0  0  0  0  0  0  0  0
   20.9322  -13.3055    5.7455 N   0  0  0  0  0  0  0  0  0  0  0  0
   18.5076  -13.0380    5.3157 C   0  0  0  0  0  0  0  0  0  0  0  0
   18.6109  -14.2077    4.5844 O   0  0  0  0  0  0  0  0  0  0  0  0
   20.9851   -7.3940    7.5814 C   0  0  0  0  0  0  0  0  0  0  0  0
   16.2011  -13.9003    5.8622 C   0  0  0  0  0  0  0  0  0  0  0  0
   19.5143   -9.0630    6.8298 C   0  0  0  0  0  0  0  0  0  0  0  0
   17.6958  -10.6707    6.7384 C   0  0  0  0  0  0  0  0  0  0  0  0
   15.7657  -11.8696    7.7705 C   0  0  0  0  0  0  0  0  0  0  0  0
   17.1263  -12.8817    5.8370 C   0  0  0  0  0  0  0  0  0  0  0  0
  1  9  1  0
  1 11  1  0
  1 13  1  0
  2 14  1  0
  2 19  1  0
  3  6  1  0
  3 18  1  0
  4 18  1  0
  4 20  1  0
  5 12  2  0
  5 21  1  0
  6 10  1  0
  7 21  1  0
  7 22  1  0
  7 23  1  0
  8 18  2  0
  9 15  1  0
  9 16  1  0
 10 12  1  0
 10 20  2  0
 11 20  1  0
 11 21  2  0
 14 22  1  0
 16 17  1  0
 16 23  1  0
 19 23  1  0
M  END
$$$$
