
     RDKit          3D

  9  9  0  0  0  0  0  0  0  0999 V2000
   -7.5464  -61.4801   17.3607 N   0  0  0  0  0  0  0  0  0  0  0  0
   -6.7663  -63.3492   16.4707 C   0  0  0  0  0  0  0  0  0  0  0  0
   -8.4931  -63.6934   17.5354 C   0  0  0  0  0  0  0  0  0  0  0  0
   -7.8706  -62.6625   16.6456 C   0  0  0  0  0  0  0  0  0  0  0  0
   -8.7705  -61.0012   17.9456 C   0  0  0  0  0  0  0  0  0  0  0  0
   -8.8172  -64.7990   16.7113 O   0  0  0  0  0  0  0  0  0  0  0  0
   -9.7933  -63.0880   17.8484 C   0  0  0  0  0  0  0  0  0  0  0  0
  -10.6545  -61.6085   19.4148 O   0  0  0  0  0  0  0  0  0  0  0  0
   -9.4818  -62.0459   18.7968 C   0  0  0  0  0  0  0  0  0  0  0  0
  1  4  1  0
  1  5  1  0
  2  4  1  0
  3  4  1  0
  3  6  1  0
  3  7  1  0
  5  9  1  0
  7  9  1  0
  8  9  1  0
M  END
$$$$
