
     RDKit          3D

  9  9  0  0  0  0  0  0  0  0999 V2000
  -10.6952  -60.9608   18.2090 N   0  0  0  0  0  0  0  0  0  0  0  0
  -10.3894  -64.1760   17.6704 O   0  0  0  0  0  0  0  0  0  0  0  0
   -9.8577  -61.6390   17.8866 C   0  0  0  0  0  0  0  0  0  0  0  0
   -6.7909  -62.8095   16.9392 C   0  0  0  0  0  0  0  0  0  0  0  0
   -9.1762  -63.7287   17.4062 C   0  0  0  0  0  0  0  0  0  0  0  0
   -8.9345  -62.4125   17.5303 C   0  0  0  0  0  0  0  0  0  0  0  0
   -7.7137  -61.9462   17.2879 C   0  0  0  0  0  0  0  0  0  0  0  0
   -8.2387  -64.5811   17.0840 N   0  0  0  0  0  0  0  0  0  0  0  0
   -7.0496  -64.0877   16.8638 C   0  0  0  0  0  0  0  0  0  0  0  0
  1  3  3  0
  2  5  2  0
  3  6  1  0
  4  7  1  0
  4  9  2  0
  5  6  1  0
  5  8  1  0
  6  7  2  0
  8  9  1  0
M  END
$$$$
