
     RDKit          3D

  9  9  0  0  0  0  0  0  0  0999 V2000
   -8.4925  -64.8082   16.9243 N   0  0  0  0  0  0  0  0  0  0  0  0
   -8.9973  -61.3116   19.2289 C   0  0  0  0  0  0  0  0  0  0  0  0
   -8.5273  -61.8963   17.9137 C   0  0  0  0  0  0  0  0  0  0  0  0
   -9.6775  -64.3310   16.2989 C   0  0  0  0  0  0  0  0  0  0  0  0
   -7.4188  -63.9002   17.0093 C   0  0  0  0  0  0  0  0  0  0  0  0
   -7.5669  -61.1806   17.0748 C   0  0  0  0  0  0  0  0  0  0  0  0
   -7.7026  -63.0846   18.2380 C   0  0  0  0  0  0  0  0  0  0  0  0
  -10.3748  -63.2623   17.0874 C   0  0  0  0  0  0  0  0  0  0  0  0
   -9.6585  -61.9529   16.9569 C   0  0  0  0  0  0  0  0  0  0  0  0
  1  4  1  0
  1  5  1  0
  2  3  1  0
  3  6  1  0
  3  7  1  0
  3  9  1  0
  4  8  1  0
  5  7  1  0
  8  9  1  0
M  END
$$$$
