
     RDKit          3D

 22 24  0  0  0  0  0  0  0  0999 V2000
    6.4901   25.9773   29.2339 C   0  0  2  0  0  0  0  0  0  0  0  0
    5.8412   24.4130   24.4167 C   0  0  0  0  0  0  0  0  0  0  0  0
    7.9645   25.6114   29.3264 C   0  0  1  0  0  0  0  0  0  0  0  0
    6.4719   26.8388   27.9934 C   0  0  0  0  0  0  0  0  0  0  0  0
    4.6732   23.4237   22.4940 N   0  0  0  0  0  0  0  0  0  0  0  0
   10.3059   22.9115   29.5742 P   0  0  0  0  0  0  0  0  0  0  0  0
    6.8923   25.2194   26.1541 N   0  0  0  0  0  0  0  0  0  0  0  0
    8.2153   24.3558   30.1577 C   0  0  0  0  0  0  0  0  0  0  0  0
    9.6180   24.1678   30.2831 O   0  0  0  0  0  0  0  0  0  0  0  0
    4.9145   25.7557   22.6979 N   0  0  0  0  0  0  0  0  0  0  0  0
    6.0631   26.8453   24.5440 N   0  0  0  0  0  0  0  0  0  0  0  0
    9.7248   22.9032   28.0894 O   0  0  0  0  0  0  0  0  0  0  0  0
    6.2553   25.5973   25.0022 C   0  0  0  0  0  0  0  0  0  0  0  0
    6.1996   23.3324   25.1958 N   0  0  0  0  0  0  0  0  0  0  0  0
    7.4907   26.1459   27.0980 C   0  0  2  0  0  0  0  0  0  0  0  0
    6.0039   26.6579   30.3745 O   0  0  0  0  0  0  0  0  0  0  0  0
    5.3817   26.8247   23.3791 C   0  0  0  0  0  0  0  0  0  0  0  0
    9.5801   21.6463   30.2227 O   0  0  0  0  0  0  0  0  0  0  0  0
    5.1486   24.5211   23.1993 C   0  0  0  0  0  0  0  0  0  0  0  0
   11.7907   22.8432   29.6384 O   0  0  0  0  0  0  0  0  0  0  0  0
    8.4086   25.4331   27.9613 O   0  0  0  0  0  0  0  0  0  0  0  0
    6.8387   23.8537   26.2237 C   0  0  0  0  0  0  0  0  0  0  0  0
  1  3  1  0
  1  4  1  0
  1 16  1  1
  2 13  1  0
  2 14  1  0
  2 19  2  0
  3  8  1  1
  3 21  1  0
  4 15  1  0
  5 19  1  0
  6  9  1  0
  6 12  1  0
  6 18  1  0
  6 20  2  0
  7 13  1  0
 15  7  1  6
  7 22  1  0
  8  9  1  0
 10 17  2  0
 10 19  1  0
 11 13  2  0
 11 17  1  0
 14 22  2  0
 15 21  1  0
M  END
$$$$
