
     RDKit          3D

 29 31  0  0  0  0  0  0  0  0999 V2000
  -20.7295    5.5936  -29.8765 O   0  0  0  0  0  0  0  0  0  0  0  0
  -22.7200    4.2557  -30.7610 C   0  0  0  0  0  0  0  0  0  0  0  0
  -19.7147   -2.6869  -30.0426 C   0  0  0  0  0  0  0  0  0  0  0  0
  -21.1832    4.3607  -30.4670 C   0  0  0  0  0  0  0  0  0  0  0  0
  -23.0857    5.4339  -31.4367 O   0  0  0  0  0  0  0  0  0  0  0  0
  -23.7574    1.7658  -35.8603 C   0  0  0  0  0  0  0  0  0  0  0  0
  -19.6012   -4.0051  -30.7834 C   0  0  0  0  0  0  0  0  0  0  0  0
  -20.3699   -1.6299  -30.6528 N   0  0  0  0  0  0  0  0  0  0  0  0
  -28.9072    0.5260  -33.4460 C   0  0  0  0  0  0  0  0  0  0  0  0
  -25.0248   -0.7692  -34.8659 O   0  0  0  0  0  0  0  0  0  0  0  0
  -23.7910    0.5479  -32.3287 C   0  0  0  0  0  0  0  0  0  0  0  0
  -22.8379    2.9836  -31.5559 C   0  0  0  0  0  0  0  0  0  0  0  0
  -29.3992    1.6554  -34.2139 C   0  0  0  0  0  0  0  0  0  0  0  0
  -24.8447    2.7402  -31.8086 O   0  0  0  0  0  0  0  0  0  0  0  0
  -28.5359    2.3353  -35.0643 C   0  0  0  0  0  0  0  0  0  0  0  0
  -25.2826    0.3917  -34.6361 C   0  0  0  0  0  0  0  0  0  0  0  0
  -27.5618    0.1319  -33.5965 C   0  0  0  0  0  0  0  0  0  0  0  0
  -26.7099    0.8526  -34.4681 C   0  0  0  0  0  0  0  0  0  0  0  0
  -23.8938    2.8419  -32.6780 C   0  0  0  0  0  0  0  0  0  0  0  0
  -27.2022    1.9439  -35.1877 C   0  0  0  0  0  0  0  0  0  0  0  0
  -19.8727   -0.4201  -30.8488 C   0  0  0  0  0  0  0  0  0  0  0  0
  -20.7526    3.0229  -29.7408 O   0  0  0  0  0  0  0  0  0  0  0  0
  -22.6213    0.5399  -31.3814 O   0  0  0  0  0  0  0  0  0  0  0  0
  -19.1418   -2.5437  -28.7181 O   0  0  0  0  0  0  0  0  0  0  0  0
  -23.6236    1.5605  -33.4428 C   0  0  0  0  0  0  0  0  0  0  0  0
  -24.2774    1.3242  -34.6016 N   0  0  0  0  0  0  0  0  0  0  0  0
  -22.4369    1.7863  -30.6947 C   0  0  0  0  0  0  0  0  0  0  0  0
  -20.9670    1.9239  -30.5703 C   0  0  0  0  0  0  0  0  0  0  0  0
  -20.2484    0.7234  -29.9252 C   0  0  0  0  0  0  0  0  0  0  0  0
  1  4  1  0
  2  4  1  0
  2  5  1  0
  2 12  1  0
  3  7  1  0
  3  8  1  0
  3 24  2  0
  4 22  1  0
  6 26  1  0
  8 21  1  0
  9 13  2  0
  9 17  1  0
 10 16  2  0
 11 23  1  0
 11 25  1  0
 12 19  1  0
 12 27  1  0
 13 15  1  0
 14 19  1  0
 15 20  2  0
 16 18  1  0
 16 26  1  0
 17 18  2  0
 18 20  1  0
 19 25  1  0
 21 29  1  0
 22 28  1  0
 23 27  1  0
 25 26  1  0
 27 28  1  0
 28 29  1  0
M  END
$$$$
