
     RDKit          3D

 34 37  0  0  0  0  0  0  0  0999 V2000
  -20.8896    0.6656  -31.2936 C   0  0  0  0  0  0  0  0  0  0  0  0
  -21.9583    6.1249  -30.3464 C   0  0  0  0  0  0  0  0  0  0  0  0
  -18.7554   -2.3209  -28.5634 C   0  0  0  0  0  0  0  0  0  0  0  0
  -29.5639    2.2153  -34.1052 C   0  0  0  0  0  0  0  0  0  0  0  0
  -28.5276    1.8601  -33.1553 N   0  0  0  0  0  0  0  0  0  0  0  0
  -25.4798    0.3191  -30.7464 C   0  0  0  0  0  0  0  0  0  0  0  0
  -21.1248    3.7362  -29.8335 C   0  0  0  0  0  0  0  0  0  0  0  0
  -26.3424    2.5832  -35.8060 N   0  0  0  0  0  0  0  0  0  0  0  0
  -23.4144    3.4630  -36.0081 C   0  0  0  0  0  0  0  0  0  0  0  0
  -23.1837   -0.0495  -32.0157 C   0  0  0  0  0  0  0  0  0  0  0  0
  -25.6395   -0.4806  -32.8698 C   0  0  0  0  0  0  0  0  0  0  0  0
  -19.4896   -1.3518  -30.7299 C   0  0  0  0  0  0  0  0  0  0  0  0
  -28.9287    2.5764  -35.3188 N   0  0  0  0  0  0  0  0  0  0  0  0
  -23.4064    4.3319  -29.5557 C   0  0  0  0  0  0  0  0  0  0  0  0
  -27.2961    2.0123  -33.8391 C   0  0  0  0  0  0  0  0  0  0  0  0
  -20.1324   -0.0886  -30.1953 C   0  0  0  0  0  0  0  0  0  0  0  0
  -20.9185    4.9663  -30.3444 C   0  0  0  0  0  0  0  0  0  0  0  0
  -24.9437    1.5779  -32.6881 C   0  0  0  0  0  0  0  0  0  0  0  0
  -23.0335   -1.4269  -31.6656 O   0  0  0  0  0  0  0  0  0  0  0  0
  -25.8576    1.8446  -33.7945 N   0  0  0  0  0  0  0  0  0  0  0  0
  -19.6115   -3.8114  -30.3104 C   0  0  0  0  0  0  0  0  0  0  0  0
  -25.3152    2.2667  -34.9983 C   0  0  0  0  0  0  0  0  0  0  0  0
  -23.3949    5.6700  -30.1476 C   0  0  0  0  0  0  0  0  0  0  0  0
  -25.1666   -1.3080  -34.4476 Cl  0  0  0  0  0  0  0  0  0  0  0  0
  -24.7367    0.4285  -32.1140 C   0  0  0  0  0  0  0  0  0  0  0  0
  -20.9416   -4.1655  -30.9476 C   0  0  0  0  0  0  0  0  0  0  0  0
  -19.6579   -2.4342  -29.7334 C   0  0  0  0  0  0  0  0  0  0  0  0
  -27.5002    2.4253  -35.0751 C   0  0  0  0  0  0  0  0  0  0  0  0
  -21.5617    7.0692  -30.5664 O   0  0  0  0  0  0  0  0  0  0  0  0
  -23.9844    2.2537  -35.2494 N   0  0  0  0  0  0  0  0  0  0  0  0
  -24.3810    2.5157  -31.7048 C   0  0  0  0  0  0  0  0  0  0  0  0
  -22.5513    3.3967  -30.5811 C   0  0  0  0  0  0  0  0  0  0  0  0
  -22.3492    0.8350  -31.0752 C   0  0  0  0  0  0  0  0  0  0  0  0
  -22.9642    2.1184  -30.6431 N   0  0  0  0  0  0  0  0  0  0  0  0
  1 16  1  0
  1 33  1  0
  2 17  1  0
  2 23  1  0
  2 29  2  0
  3 27  1  0
  4  5  1  0
  4 13  2  0
  5 15  1  0
  6 25  1  0
  7 17  1  0
  7 32  1  0
  8 22  2  0
  8 28  1  0
  9 30  1  0
 10 19  1  0
 10 25  1  0
 10 33  1  0
 11 24  1  0
 11 25  1  0
 12 16  1  0
 12 27  1  0
 13 28  1  0
 14 23  1  0
 14 32  1  0
 15 20  1  0
 15 28  2  0
 18 20  1  0
 18 25  1  0
 18 31  1  0
 20 22  1  0
 21 26  1  0
 21 27  1  0
 22 30  1  0
 31 34  1  0
 32 34  1  0
 33 34  1  0
M  END
$$$$
