
     RDKit          3D

 36 38  0  0  0  0  0  0  0  0999 V2000
  -23.0987   -1.5033  -31.8794 O   0  0  0  0  0  0  0  0  0  0  0  0
  -28.8113    4.5050  -34.4394 C   0  0  0  0  0  0  0  0  0  0  0  0
  -21.6085   -3.7014  -31.1702 C   0  0  0  0  0  0  0  0  0  0  0  0
  -25.9841    4.2336  -33.1783 C   0  0  0  0  0  0  0  0  0  0  0  0
  -23.6167    2.0698  -34.4687 O   0  0  0  0  0  0  0  0  0  0  0  0
  -29.0229    2.2111  -35.4765 O   0  0  0  0  0  0  0  0  0  0  0  0
  -22.7632    5.5298  -30.3508 O   0  0  0  0  0  0  0  0  0  0  0  0
  -21.0271    3.7908  -30.6797 C   0  0  0  0  0  0  0  0  0  0  0  0
  -19.6756   -2.5246  -30.1043 C   0  0  0  0  0  0  0  0  0  0  0  0
  -20.3113    4.3237  -29.5453 O   0  0  0  0  0  0  0  0  0  0  0  0
  -25.5306    2.7638  -32.9206 C   0  0  0  0  0  0  0  0  0  0  0  0
  -21.3382    1.4450  -29.9074 C   0  0  0  0  0  0  0  0  0  0  0  0
  -26.7996    1.9989  -32.5590 O   0  0  0  0  0  0  0  0  0  0  0  0
  -27.6438    5.3385  -34.7455 N   0  0  0  0  0  0  0  0  0  0  0  0
  -25.0425    5.2429  -32.7391 O   0  0  0  0  0  0  0  0  0  0  0  0
  -29.2975    3.6350  -35.5562 C   0  0  0  0  0  0  0  0  0  0  0  0
  -22.7870    1.8134  -29.9721 O   0  0  0  0  0  0  0  0  0  0  0  0
  -23.3603    3.1487  -29.9685 C   0  0  0  0  0  0  0  0  0  0  0  0
  -18.9137   -3.7150  -30.1613 N   0  0  0  0  0  0  0  0  0  0  0  0
  -22.5160    4.1446  -30.7494 C   0  0  0  0  0  0  0  0  0  0  0  0
  -24.5056    2.6006  -31.9332 O   0  0  0  0  0  0  0  0  0  0  0  0
  -20.8205    2.2282  -30.8948 C   0  0  0  0  0  0  0  0  0  0  0  0
  -24.7110    2.9321  -30.5940 C   0  0  0  0  0  0  0  0  0  0  0  0
  -24.9554    1.8958  -34.0378 C   0  0  0  0  0  0  0  0  0  0  0  0
  -20.9945   -2.4410  -30.4798 C   0  0  0  0  0  0  0  0  0  0  0  0
  -27.1835   -0.5301  -32.4343 C   0  0  0  0  0  0  0  0  0  0  0  0
  -25.0517   -0.4365  -34.7451 O   0  0  0  0  0  0  0  0  0  0  0  0
  -21.1374   -0.0912  -29.7794 C   0  0  0  0  0  0  0  0  0  0  0  0
  -22.3590   -0.8743  -30.8158 O   0  0  0  0  0  0  0  0  0  0  0  0
  -19.7763   -0.2154  -29.4194 C   0  0  0  0  0  0  0  0  0  0  0  0
  -25.3376    0.4705  -33.7010 C   0  0  0  0  0  0  0  0  0  0  0  0
  -26.3411    4.5769  -34.6279 C   0  0  0  0  0  0  0  0  0  0  0  0
  -21.6675   -1.2174  -30.4054 C   0  0  0  0  0  0  0  0  0  0  0  0
  -27.5875    6.5484  -33.7857 C   0  0  0  0  0  0  0  0  0  0  0  0
  -19.0827   -1.4281  -29.5733 N   0  0  0  0  0  0  0  0  0  0  0  0
  -26.7140    0.6487  -33.2039 C   0  0  0  0  0  0  0  0  0  0  0  0
  1 29  1  0
  2 14  1  0
  2 16  1  0
  3 25  1  0
  4 11  1  0
  4 15  1  0
  4 32  1  0
  5 24  1  0
  6 16  1  0
  7 20  1  0
  8 10  1  0
  8 20  1  0
  8 22  1  0
  9 19  1  0
  9 25  2  0
  9 35  1  0
 11 13  1  0
 11 21  1  0
 11 24  1  0
 12 17  1  0
 12 22  1  0
 12 28  1  0
 13 36  1  0
 14 32  1  0
 14 34  1  0
 17 18  1  0
 18 20  1  0
 18 23  1  0
 21 23  1  0
 24 31  1  0
 25 33  1  0
 26 36  1  0
 27 31  1  0
 28 30  1  0
 28 33  2  0
 29 33  1  0
 30 35  2  0
 31 36  1  0
M  END
$$$$
