
     RDKit          3D

 35 36  0  0  0  0  0  0  0  0999 V2000
  -21.5428    0.4979  -30.6257 N   0  0  0  0  0  0  0  0  0  0  0  0
  -21.3554   -0.2423  -28.5991 O   0  0  0  0  0  0  0  0  0  0  0  0
  -30.0553    3.2413  -35.1681 Cl  0  0  0  0  0  0  0  0  0  0  0  0
  -20.6275   -1.8028  -30.2390 C   0  0  0  0  0  0  0  0  0  0  0  0
  -22.5011    3.4194  -28.0822 C   0  0  0  0  0  0  0  0  0  0  0  0
  -26.1576    5.7038  -32.4692 Cl  0  0  0  0  0  0  0  0  0  0  0  0
  -27.9269    2.0570  -34.2844 C   0  0  0  0  0  0  0  0  0  0  0  0
  -26.6817    2.0796  -33.6787 C   0  0  0  0  0  0  0  0  0  0  0  0
  -22.9725    6.3346  -29.7635 O   0  0  0  0  0  0  0  0  0  0  0  0
  -20.8523   -4.0605  -30.7202 C   0  0  0  0  0  0  0  0  0  0  0  0
  -24.4946   -0.7660  -30.9449 C   0  0  0  0  0  0  0  0  0  0  0  0
  -24.3388    0.0772  -35.4555 O   0  0  0  0  0  0  0  0  0  0  0  0
  -26.1027    0.3569  -32.2392 C   0  0  0  0  0  0  0  0  0  0  0  0
  -19.2995   -1.9291  -30.4213 C   0  0  0  0  0  0  0  0  0  0  0  0
  -18.3656   -0.7212  -30.4022 C   0  0  0  0  0  0  0  0  0  0  0  0
  -21.8859    1.6965  -29.8915 C   0  0  0  0  0  0  0  0  0  0  0  0
  -28.6530    3.2076  -34.4170 C   0  0  0  0  0  0  0  0  0  0  0  0
  -21.2062   -0.4946  -29.8331 C   0  0  0  0  0  0  0  0  0  0  0  0
  -22.1681    5.1042  -30.2356 P   0  0  0  0  0  0  0  0  0  0  0  0
  -27.3010   -0.4298  -32.2580 O   0  0  0  0  0  0  0  0  0  0  0  0
  -26.2696    3.1253  -33.1391 N   0  0  0  0  0  0  0  0  0  0  0  0
  -19.5543   -4.1481  -30.7922 C   0  0  0  0  0  0  0  0  0  0  0  0
  -28.1096    4.4008  -33.8404 C   0  0  0  0  0  0  0  0  0  0  0  0
  -23.9608    0.3511  -32.9522 O   0  0  0  0  0  0  0  0  0  0  0  0
  -24.2394   -2.1222  -30.8323 O   0  0  0  0  0  0  0  0  0  0  0  0
  -23.0754    3.5741  -29.4634 C   0  0  0  0  0  0  0  0  0  0  0  0
  -22.9718    2.5481  -30.4445 C   0  0  0  0  0  0  0  0  0  0  0  0
  -24.8756   -0.4610  -32.2469 C   0  0  0  0  0  0  0  0  0  0  0  0
  -26.8456    4.3553  -33.1731 C   0  0  0  0  0  0  0  0  0  0  0  0
  -25.9227    0.8591  -33.6077 C   0  0  0  0  0  0  0  0  0  0  0  0
  -20.7033    5.1881  -29.7110 O   0  0  0  0  0  0  0  0  0  0  0  0
  -22.2518    4.9137  -31.8068 O   0  0  0  0  0  0  0  0  0  0  0  0
  -21.3889   -2.8772  -30.4305 N   0  0  0  0  0  0  0  0  0  0  0  0
  -24.4982    0.8720  -34.1357 C   0  0  0  0  0  0  0  0  0  0  0  0
  -18.7707   -3.1028  -30.6186 N   0  0  0  0  0  0  0  0  0  0  0  0
  1 16  1  0
  1 18  1  0
  2 18  2  0
  3 17  1  0
  4 14  1  0
  4 18  1  0
  4 33  1  0
  5 26  1  0
  6 29  1  0
  7  8  2  0
  7 17  1  0
  8 21  1  0
  8 30  1  0
  9 19  1  0
 10 22  1  0
 10 33  2  0
 11 25  1  0
 11 28  1  0
 12 34  1  0
 13 20  1  0
 13 28  1  0
 13 30  1  0
 14 15  1  0
 14 35  2  0
 16 27  1  0
 17 23  2  0
 19 26  1  0
 19 31  2  0
 19 32  1  0
 21 29  2  0
 22 35  1  0
 23 29  1  0
 24 28  1  0
 24 34  1  0
 26 27  1  0
 30 34  1  0
M  END
$$$$
