
     RDKit          3D

 26 26  0  0  0  0  0  0  0  0999 V2000
  -23.0514   -3.1423  -29.8408 O   0  0  0  0  0  0  0  0  0  0  0  0
  -27.8920    1.1933  -32.9755 C   0  0  0  0  0  0  0  0  0  0  0  0
  -26.3355   -0.6653  -33.6525 C   0  0  1  0  0  0  0  0  0  0  0  0
  -26.6452    3.4120  -32.8666 C   0  0  0  0  0  0  0  0  0  0  0  0
  -27.0436    4.2745  -34.0600 C   0  0  0  0  0  0  0  0  0  0  0  0
  -27.0950    0.5947  -34.1106 C   0  0  0  0  0  0  0  0  0  0  0  0
  -21.4527   -5.3128  -29.9059 O   0  0  0  0  0  0  0  0  0  0  0  0
  -21.1271   -4.2454  -30.7925 C   0  0  2  0  0  0  0  0  0  0  0  0
  -21.5109    3.4252  -35.4802 O   0  0  0  0  0  0  0  0  0  0  0  0
  -22.0643    2.6702  -34.5113 C   0  0  0  0  0  0  0  0  0  0  0  0
  -23.2462    2.7310  -34.2168 O   0  0  0  0  0  0  0  0  0  0  0  0
  -22.9328   -0.9656  -31.6664 C   0  0  1  0  0  0  0  0  0  0  0  0
  -28.2011   -1.0458  -31.9240 C   0  0  0  0  0  0  0  0  0  0  0  0
  -25.7021    5.4248  -34.4932 S   0  0  0  0  0  0  0  0  0  0  0  0
  -19.7202   -3.7696  -30.4711 C   0  0  0  0  0  0  0  0  0  0  0  0
  -28.9017    0.2318  -32.3958 C   0  0  0  0  0  0  0  0  0  0  0  0
  -22.1494   -3.1007  -30.6756 C   0  0  0  0  0  0  0  0  0  0  0  0
  -22.2165    0.3371  -32.0786 C   0  0  0  0  0  0  0  0  0  0  0  0
  -25.1656   -0.2736  -32.7237 C   0  0  0  0  0  0  0  0  0  0  0  0
  -24.1195   -1.3801  -32.5618 C   0  0  0  0  0  0  0  0  0  0  0  0
  -21.6902    0.3620  -33.5203 C   0  0  0  0  0  0  0  0  0  0  0  0
  -27.7178    2.4303  -32.4720 C   0  0  0  0  0  0  0  0  0  0  0  0
  -21.1147    1.7075  -33.8907 C   0  0  0  0  0  0  0  0  0  0  0  0
  -19.8339    2.0408  -33.6536 C   0  0  0  0  0  0  0  0  0  0  0  0
  -27.3198   -1.6666  -33.0150 C   0  0  0  0  0  0  0  0  0  0  0  0
  -21.9737   -2.0661  -31.5715 N   0  0  0  0  0  0  0  0  0  0  0  0
  1 17  2  0
  2  6  1  0
  2 16  1  0
  2 22  2  3
  3  6  1  0
  3 19  1  1
  3 25  1  0
  4  5  1  0
  4 22  1  0
  5 14  1  0
  7  8  1  0
  8 15  1  1
  8 17  1  0
  9 10  1  0
 10 11  2  0
 10 23  1  0
 12 18  1  6
 12 20  1  0
 12 26  1  0
 13 16  1  0
 13 25  1  0
 17 26  1  0
 18 21  1  0
 19 20  1  0
 21 23  1  0
 23 24  2  0
M  END
$$$$
