
     RDKit          3D

 33 36  0  0  0  0  0  0  0  0999 V2000
  -21.8848    2.4124  -32.4000 O   0  0  0  0  0  0  0  0  0  0  0  0
  -21.3392   -2.2548  -29.7118 C   0  0  2  0  0  0  0  0  0  0  0  0
  -24.8802    3.1718  -30.4694 C   0  0  0  0  0  0  0  0  0  0  0  0
  -21.7944   -0.9444  -32.0253 O   0  0  0  0  0  0  0  0  0  0  0  0
  -23.5455    0.2395  -33.6401 O   0  0  0  0  0  0  0  0  0  0  0  0
  -22.7185   -1.9538  -30.1096 N   0  0  0  0  0  0  0  0  0  0  0  0
  -20.5593   -1.6623  -32.0362 C   0  0  0  0  0  0  0  0  0  0  0  0
  -25.2796   -1.7702  -31.4455 O   0  0  0  0  0  0  0  0  0  0  0  0
  -24.0238    0.5719  -36.3554 C   0  0  0  0  0  0  0  0  0  0  0  0
  -26.0154    1.8831  -33.3330 O   0  0  0  0  0  0  0  0  0  0  0  0
  -29.3149    2.9915  -34.9152 C   0  0  0  0  0  0  0  0  0  0  0  0
  -22.4757    3.4859  -30.0127 O   0  0  0  0  0  0  0  0  0  0  0  0
  -26.3558   -0.3671  -34.0201 C   0  0  0  0  0  0  0  0  0  0  0  0
  -24.3632    0.2576  -32.4542 C   0  0  1  0  0  0  0  0  0  0  0  0
  -28.2776    2.7811  -33.8124 C   0  0  0  0  0  0  0  0  0  0  0  0
  -23.5126    3.6186  -30.9833 C   0  0  0  0  0  0  0  0  0  0  0  0
  -24.8768    1.7333  -30.4996 O   0  0  0  0  0  0  0  0  0  0  0  0
  -23.2733    2.5833  -32.0842 C   0  0  2  0  0  0  0  0  0  0  0  0
  -20.4339   -2.6765  -30.8888 C   0  0  1  0  0  0  0  0  0  0  0  0
  -23.8499    1.3167  -31.4374 C   0  0  2  0  0  0  0  0  0  0  0  0
  -27.8721    4.5632  -36.3059 C   0  0  0  0  0  0  0  0  0  0  0  0
  -27.3557    0.4966  -34.7221 C   0  0  2  0  0  0  0  0  0  0  0  0
  -26.8931    1.5816  -35.6761 C   0  0  1  0  0  0  0  0  0  0  0  0
  -21.3337   -3.3049  -28.5985 C   0  0  0  0  0  0  0  0  0  0  0  0
  -27.8358    2.0655  -36.7383 C   0  0  0  0  0  0  0  0  0  0  0  0
  -19.0703   -2.8126  -30.4927 O   0  0  0  0  0  0  0  0  0  0  0  0
  -24.8827    1.5820  -36.5177 C   0  0  0  0  0  0  0  0  0  0  0  0
  -28.6837    3.2650  -36.2892 C   0  0  1  0  0  0  0  0  0  0  0  0
  -25.8350    0.5173  -32.8648 C   0  0  1  0  0  0  0  0  0  0  0  0
  -27.1503    1.8921  -34.2274 C   0  0  2  0  0  0  0  0  0  0  0  0
  -23.4777    4.9406  -31.4658 O   0  0  0  0  0  0  0  0  0  0  0  0
  -22.8645   -1.7358  -31.5504 C   0  0  0  0  0  0  0  0  0  0  0  0
  -24.2745   -1.1338  -31.7923 C   0  0  0  0  0  0  0  0  0  0  0  0
 18  1  1  1
  2  6  1  0
  2 19  1  0
  2 24  1  1
  3 16  1  0
  3 17  1  0
  4  7  1  0
  4 32  1  0
 14  5  1  6
  6 32  1  0
  7 19  1  0
  8 33  2  0
  9 27  2  0
 10 29  1  0
 10 30  1  0
 11 15  1  0
 11 28  1  0
 12 16  1  0
 22 13  1  1
 29 13  1  6
 14 20  1  0
 14 29  1  0
 14 33  1  0
 30 15  1  6
 16 18  1  0
 16 31  1  0
 20 17  1  1
 18 20  1  0
 19 26  1  1
 28 21  1  6
 22 23  1  0
 22 30  1  0
 23 25  1  6
 23 30  1  0
 25 28  1  0
 32 33  1  0
M  END
$$$$
