
     RDKit          3D

 14 15  0  0  0  0  0  0  0  0999 V2000
  -25.5579   35.3849  -45.4511 C   0  0  0  0  0  0  0  0  0  0  0  0
  -25.0392   36.5623  -47.5113 C   0  0  0  0  0  0  0  0  0  0  0  0
  -22.5195   36.8885  -48.3504 Cl  0  0  0  0  0  0  0  0  0  0  0  0
  -27.5783   31.4774  -43.8573 C   0  0  0  0  0  0  0  0  0  0  0  0
  -23.6992   36.3080  -47.2580 C   0  0  0  0  0  0  0  0  0  0  0  0
  -25.6114   31.8102  -42.6501 C   0  0  0  0  0  0  0  0  0  0  0  0
  -24.2053   35.1947  -45.2597 C   0  0  0  0  0  0  0  0  0  0  0  0
  -23.2723   35.6439  -46.1457 C   0  0  0  0  0  0  0  0  0  0  0  0
  -27.4417   32.7627  -44.3278 N   0  0  0  0  0  0  0  0  0  0  0  0
  -26.4704   34.9201  -44.5033 N   0  0  0  0  0  0  0  0  0  0  0  0
  -26.4227   33.5920  -43.9760 C   0  0  0  0  0  0  0  0  0  0  0  0
  -25.9407   36.0356  -46.6067 C   0  0  0  0  0  0  0  0  0  0  0  0
  -26.6609   31.0211  -42.9995 C   0  0  0  0  0  0  0  0  0  0  0  0
  -25.5195   33.1237  -43.1452 N   0  0  0  0  0  0  0  0  0  0  0  0
  1  7  2  0
  1 10  1  0
  1 12  1  0
  2  5  1  0
  2 12  2  0
  3  5  1  0
  4  9  1  0
  4 13  2  0
  5  8  2  0
  6 13  1  0
  6 14  2  0
  7  8  1  0
  9 11  2  0
 10 11  1  0
 11 14  1  0
M  END
$$$$
