
     RDKit          3D

 15 16  0  0  0  0  0  0  0  0999 V2000
  -25.4006   33.9959  -44.5853 C   0  0  0  0  0  0  0  0  0  0  0  0
  -25.0294   31.8020  -43.6595 C   0  0  0  0  0  0  0  0  0  0  0  0
  -25.6539   36.4299  -45.3657 C   0  0  0  0  0  0  0  0  0  0  0  0
  -26.7076   33.9107  -44.0729 C   0  0  0  0  0  0  0  0  0  0  0  0
  -24.1362   37.6088  -46.7310 C   0  0  0  0  0  0  0  0  0  0  0  0
  -24.5469   32.9220  -44.3674 C   0  0  0  0  0  0  0  0  0  0  0  0
  -23.7061   35.3135  -46.1293 C   0  0  0  0  0  0  0  0  0  0  0  0
  -26.8712   30.4237  -42.3690 Cl  0  0  0  0  0  0  0  0  0  0  0  0
  -22.1288   36.9747  -49.0404 N   0  0  0  0  0  0  0  0  0  0  0  0
  -23.2993   36.4830  -46.8336 C   0  0  0  0  0  0  0  0  0  0  0  0
  -26.3437   31.8321  -43.2094 C   0  0  0  0  0  0  0  0  0  0  0  0
  -27.2106   32.8352  -43.4051 N   0  0  0  0  0  0  0  0  0  0  0  0
  -21.9869   36.4709  -47.6804 C   0  0  0  0  0  0  0  0  0  0  0  0
  -25.2686   37.5543  -46.0192 N   0  0  0  0  0  0  0  0  0  0  0  0
  -24.9235   35.2293  -45.3250 C   0  0  0  0  0  0  0  0  0  0  0  0
  1  4  2  0
  1  6  1  0
  1 15  1  0
  2  6  2  0
  2 11  1  0
  3 14  1  0
  3 15  2  0
  4 12  1  0
  5 10  1  0
  5 14  2  0
  7 10  2  0
  7 15  1  0
  8 11  1  0
  9 13  1  0
 10 13  1  0
 11 12  2  0
M  END
$$$$
