
     RDKit          3D

 15 17  0  0  0  0  0  0  0  0999 V2000
  -27.2549   34.8341  -43.9666 N   0  0  0  0  0  0  0  0  0  0  0  0
  -27.6121   32.4891  -43.2039 N   0  0  0  0  0  0  0  0  0  0  0  0
  -25.3048   35.0517  -45.2878 C   0  0  0  0  0  0  0  0  0  0  0  0
  -23.6729   37.2362  -47.9789 C   0  0  0  0  0  0  0  0  0  0  0  0
  -24.6705   36.6841  -47.1501 C   0  0  0  0  0  0  0  0  0  0  0  0
  -24.3484   35.7753  -46.1204 C   0  0  0  0  0  0  0  0  0  0  0  0
  -25.1421   33.6819  -45.1631 C   0  0  0  0  0  0  0  0  0  0  0  0
  -25.9203   32.9436  -44.4089 N   0  0  0  0  0  0  0  0  0  0  0  0
  -21.9457   35.9992  -46.8000 C   0  0  0  0  0  0  0  0  0  0  0  0
  -26.3960   35.5881  -44.7389 C   0  0  0  0  0  0  0  0  0  0  0  0
  -26.8950   31.2617  -43.3624 C   0  0  0  0  0  0  0  0  0  0  0  0
  -25.7993   31.5619  -44.0420 C   0  0  0  0  0  0  0  0  0  0  0  0
  -22.9445   35.4694  -45.9824 C   0  0  0  0  0  0  0  0  0  0  0  0
  -26.9773   33.4803  -43.8655 C   0  0  0  0  0  0  0  0  0  0  0  0
  -22.3190   36.9015  -47.7957 C   0  0  0  0  0  0  0  0  0  0  0  0
  1 10  1  0
  1 14  2  0
  2 11  2  0
  2 14  1  0
  3  6  1  0
  3  7  1  0
  3 10  2  0
  4  5  1  0
  4 15  2  0
  5  6  2  0
  6 13  1  0
  7  8  1  0
  8 12  1  0
  8 14  1  0
  9 13  2  0
  9 15  1  0
 11 12  1  0
M  END
$$$$
