
     RDKit          3D

 39 42  0  0  0  0  0  0  0  0999 V2000
   -6.0128   -1.8169    1.4649 C   0  0  0  0  0  0  0  0  0  0  0  0
   -5.6966    0.5535    0.7047 C   0  0  0  0  0  0  0  0  0  0  0  0
    1.0751    2.8059   -5.1490 C   0  0  0  0  0  0  0  0  0  0  0  0
    6.5795   -0.0544   -0.2001 C   0  0  0  0  0  0  0  0  0  0  0  0
   -0.8927    1.5833   -4.4644 C   0  0  0  0  0  0  0  0  0  0  0  0
   -1.5533   -0.3991   -0.1634 C   0  0  0  0  0  0  0  0  0  0  0  0
   -5.1379   -0.7774    0.9856 N   0  0  0  0  0  0  0  0  0  0  0  0
    8.4110   -2.1077    2.5465 C   0  0  0  0  0  0  0  0  0  0  0  0
   -0.9488   -1.4597    0.5295 C   0  0  0  0  0  0  0  0  0  0  0  0
    1.3626    2.0970   -1.4530 C   0  0  0  0  0  0  0  0  0  0  0  0
   -0.7480    0.3431   -1.0887 N   0  0  0  0  0  0  0  0  0  0  0  0
   -6.9652   -1.5665    2.6005 C   0  0  0  0  0  0  0  0  0  0  0  0
    3.1257    3.5187   -3.5139 Cl  0  0  0  0  0  0  0  0  0  0  0  0
   -5.9501   -2.9690    0.9564 O   0  0  0  0  0  0  0  0  0  0  0  0
   -6.2011   -1.3521    3.9022 C   0  0  0  0  0  0  0  0  0  0  0  0
   -2.9282    2.1444   -0.7181 O   0  0  0  0  0  0  0  0  0  0  0  0
   -0.4025    1.4841   -3.1561 C   0  0  0  0  0  0  0  0  0  0  0  0
   -1.7098   -2.2873    1.3532 C   0  0  0  0  0  0  0  0  0  0  0  0
    2.9986    1.1321    0.2225 C   0  0  0  0  0  0  0  0  0  0  0  0
    8.1234   -1.3754    1.2699 C   0  0  0  0  0  0  0  0  0  0  0  0
   -0.1596    2.2369   -5.4542 C   0  0  0  0  0  0  0  0  0  0  0  0
    2.2743    1.4731    1.1977 O   0  0  0  0  0  0  0  0  0  0  0  0
    4.3089    0.4910    0.4845 C   0  0  0  0  0  0  0  0  0  0  0  0
   -2.9335   -0.1261    0.0419 C   0  0  0  0  0  0  0  0  0  0  0  0
    2.5313    1.3308   -1.1233 N   0  0  0  0  0  0  0  0  0  0  0  0
    4.5359   -0.1756    1.6996 C   0  0  0  0  0  0  0  0  0  0  0  0
    1.5804    2.7399   -3.8473 C   0  0  0  0  0  0  0  0  0  0  0  0
    0.7691   -1.7942    0.3455 Cl  0  0  0  0  0  0  0  0  0  0  0  0
    5.3474    0.5524   -0.4594 C   0  0  0  0  0  0  0  0  0  0  0  0
   -5.0819    1.1398   -0.5641 C   0  0  0  0  0  0  0  0  0  0  0  0
    0.7664    2.7776   -0.5748 O   0  0  0  0  0  0  0  0  0  0  0  0
    6.8062   -0.7335    1.0109 C   0  0  0  0  0  0  0  0  0  0  0  0
    9.0336   -1.3099    0.3993 O   0  0  0  0  0  0  0  0  0  0  0  0
    0.8435    2.0905   -2.8327 C   0  0  0  0  0  0  0  0  0  0  0  0
    5.7672   -0.7840    1.9592 C   0  0  0  0  0  0  0  0  0  0  0  0
   -1.1917    0.7386   -2.2132 N   0  0  0  0  0  0  0  0  0  0  0  0
   -3.5918    1.1049   -0.4579 C   0  0  0  0  0  0  0  0  0  0  0  0
   -3.0799   -2.0792    1.4883 C   0  0  0  0  0  0  0  0  0  0  0  0
   -3.7135   -1.0107    0.8266 C   0  0  0  0  0  0  0  0  0  0  0  0
  1  7  1  0
  1 12  1  0
  1 14  2  0
  2  7  1  0
  2 30  1  0
  3 21  2  0
  3 27  1  0
  4 29  2  0
  4 32  1  0
  5 17  2  0
  5 21  1  0
  6  9  2  0
  6 11  1  0
  6 24  1  0
  7 39  1  0
  8 20  1  0
  9 18  1  0
  9 28  1  0
 10 25  1  0
 10 31  2  0
 10 34  1  0
 11 36  2  3
 12 15  1  0
 13 27  1  0
 16 37  2  0
 17 34  1  0
 17 36  1  0
 18 38  2  0
 19 22  2  0
 19 23  1  0
 19 25  1  0
 20 32  1  0
 20 33  2  0
 23 26  2  0
 23 29  1  0
 24 37  1  0
 24 39  2  0
 26 35  1  0
 27 34  2  0
 30 37  1  0
 32 35  2  0
 38 39  1  0
M  END
