
     RDKit          3D

 32 34  0  0  0  0  0  0  0  0999 V2000
    1.2279    0.3590    0.8449 O   0  0  0  0  0  0  0  0  0  0  0  0
    1.9633    3.4526   -4.4503 O   0  0  0  0  0  0  0  0  0  0  0  0
   -4.6003    2.3260    0.6122 F   0  0  0  0  0  0  0  0  0  0  0  0
   -6.0149   -0.9472   -0.5505 N   0  0  0  0  0  0  0  0  0  0  0  0
    0.4088   -1.4607   -1.9802 C   0  0  0  0  0  0  0  0  0  0  0  0
    1.5949    2.2488   -3.8539 C   0  0  0  0  0  0  0  0  0  0  0  0
    0.2543    1.8510   -3.8716 C   0  0  0  0  0  0  0  0  0  0  0  0
   -3.0203    0.3903    3.9339 C   0  0  0  0  0  0  0  0  0  0  0  0
    2.4200   -1.6169    0.4617 N   0  0  0  0  0  0  0  0  0  0  0  0
    3.6966   -1.1487    0.9305 C   0  0  0  0  0  0  0  0  0  0  0  0
   -3.0735   -0.2795    2.7085 C   0  0  0  0  0  0  0  0  0  0  0  0
    2.5538    1.4336   -3.2379 C   0  0  0  0  0  0  0  0  0  0  0  0
   -4.0705    1.6818    1.6830 C   0  0  0  0  0  0  0  0  0  0  0  0
   -2.4311   -1.1297   -0.0073 N   0  0  0  0  0  0  0  0  0  0  0  0
    0.0746   -1.2981   -0.4811 C   0  0  1  0  0  0  0  0  0  0  0  0
    5.7922   -1.6069    2.0769 C   0  0  0  0  0  0  0  0  0  0  0  0
   -4.0142    2.3450    2.9134 C   0  0  0  0  0  0  0  0  0  0  0  0
    5.4124    0.5702    1.0922 C   0  0  0  0  0  0  0  0  0  0  0  0
    6.2290   -0.3070    1.8101 C   0  0  0  0  0  0  0  0  0  0  0  0
   -3.6624   -0.3696    0.2407 C   0  0  1  0  0  0  0  0  0  0  0  0
   -4.8663   -1.2769    0.2315 C   0  0  0  0  0  0  0  0  0  0  0  0
    1.2601   -0.7830    0.3089 C   0  0  0  0  0  0  0  0  0  0  0  0
    2.1718    0.2286   -2.6417 C   0  0  0  0  0  0  0  0  0  0  0  0
   -1.1819   -0.4769   -0.2811 C   0  0  0  0  0  0  0  0  0  0  0  0
   -0.1303    0.6467   -3.2746 C   0  0  0  0  0  0  0  0  0  0  0  0
   -4.8802   -2.3166    0.9445 O   0  0  0  0  0  0  0  0  0  0  0  0
    0.8252   -0.1718   -2.6496 C   0  0  0  0  0  0  0  0  0  0  0  0
   -3.5857    0.3636    1.5647 C   0  0  0  0  0  0  0  0  0  0  0  0
    4.1540    0.1529    0.6476 C   0  0  0  0  0  0  0  0  0  0  0  0
    4.5353   -2.0288    1.6328 C   0  0  0  0  0  0  0  0  0  0  0  0
   -3.4875    1.7020    4.0357 C   0  0  0  0  0  0  0  0  0  0  0  0
   -1.1424    0.7795   -0.3958 O   0  0  0  0  0  0  0  0  0  0  0  0
  1 22  2  0
  2  6  1  0
  3 13  1  0
  4 21  1  0
 15  5  1  6
  5 27  1  0
  6  7  1  0
  6 12  2  0
  7 25  2  0
  8 11  1  0
  8 31  2  0
  9 10  1  0
  9 22  1  0
 10 29  1  0
 10 30  2  0
 11 28  2  0
 12 23  1  0
 13 17  2  0
 13 28  1  0
 20 14  1  1
 14 24  1  0
 15 22  1  0
 15 24  1  0
 16 19  2  0
 16 30  1  0
 17 31  1  0
 18 19  1  0
 18 29  2  0
 20 21  1  0
 20 28  1  0
 21 26  2  0
 23 27  2  0
 24 32  2  0
 25 27  1  0
M  END
