
     RDKit          3D

 20 21  0  0  0  0  0  0  0  0999 V2000
   -1.1964   -0.1267    0.0604 C   0  0  0  0  0  0  0  0  0  0  0  0
   -5.1279    1.5909   -1.1723 O   0  0  0  0  0  0  0  0  0  0  0  0
   -4.3955    1.2852    0.9794 O   0  0  0  0  0  0  0  0  0  0  0  0
   -0.7644   -2.9034    0.0458 C   0  0  0  0  0  0  0  0  0  0  0  0
   -2.5837    1.6835   -2.1287 O   0  0  0  0  0  0  0  0  0  0  0  0
    2.0858    0.4120   -1.1017 C   0  0  0  0  0  0  0  0  0  0  0  0
   -4.1561    1.4667   -0.3796 C   0  0  0  0  0  0  0  0  0  0  0  0
    3.1504   -0.4512   -1.3968 C   0  0  0  0  0  0  0  0  0  0  0  0
   -0.1319   -2.1013   -0.9081 C   0  0  0  0  0  0  0  0  0  0  0  0
   -1.8205   -0.9573    1.0073 C   0  0  0  0  0  0  0  0  0  0  0  0
   -1.5930   -2.3322    1.0083 C   0  0  0  0  0  0  0  0  0  0  0  0
   -0.3084   -0.7004   -0.8868 C   0  0  0  0  0  0  0  0  0  0  0  0
    4.4563    0.5271    0.3927 C   0  0  0  0  0  0  0  0  0  0  0  0
    3.4072    1.4055    0.6770 C   0  0  0  0  0  0  0  0  0  0  0  0
    4.3296   -0.3978   -0.6472 C   0  0  0  0  0  0  0  0  0  0  0  0
    0.8357   -2.8988   -2.1422 Cl  0  0  0  0  0  0  0  0  0  0  0  0
   -2.7777    1.5162   -0.8944 C   0  0  0  0  0  0  0  0  0  0  0  0
    0.5746    0.3366   -2.0776 S   0  0  0  0  0  0  0  0  0  0  0  0
   -1.5959    1.3308    0.0141 C   0  0  0  0  0  0  0  0  0  0  0  0
    2.2272    1.3539   -0.0718 C   0  0  0  0  0  0  0  0  0  0  0  0
  1 10  2  0
  1 12  1  0
  1 19  1  0
  2  7  2  0
  3  7  1  0
  4  9  1  0
  4 11  2  0
  5 17  2  0
  6  8  1  0
  6 18  1  0
  6 20  2  0
  7 17  1  0
  8 15  2  0
  9 12  2  0
  9 16  1  0
 10 11  1  0
 12 18  1  0
 13 14  2  0
 13 15  1  0
 14 20  1  0
 17 19  1  0
M  END
