
     RDKit          3D

 16 17  0  0  0  0  0  0  0  0999 V2000
   -5.2806   -0.1538   -0.2550 N   0  0  0  0  0  0  0  0  0  0  0  0
   -3.8625   -0.3389   -0.2715 C   0  0  0  0  0  0  0  0  0  0  0  0
    5.5382   -0.4397    1.5077 O   0  0  0  0  0  0  0  0  0  0  0  0
    2.5952   -0.1187    0.1627 N   0  0  0  0  0  0  0  0  0  0  0  0
    5.5982    0.5763   -0.5517 O   0  0  0  0  0  0  0  0  0  0  0  0
   -0.7722    1.4593    0.7475 C   0  0  0  0  0  0  0  0  0  0  0  0
   -3.3124   -1.5122   -0.8058 C   0  0  0  0  0  0  0  0  0  0  0  0
   -1.0749   -0.7120   -0.3085 C   0  0  0  0  0  0  0  0  0  0  0  0
    4.9616    0.3389    0.5094 C   0  0  0  0  0  0  0  0  0  0  0  0
    3.5654    0.8500    0.6764 C   0  0  0  0  0  0  0  0  0  0  0  0
    1.1713    0.0974    0.1937 C   0  0  0  0  0  0  0  0  0  0  0  0
   -1.9276   -1.6991   -0.8249 C   0  0  0  0  0  0  0  0  0  0  0  0
    0.3168   -0.8902   -0.3231 C   0  0  0  0  0  0  0  0  0  0  0  0
    0.6127    1.2741    0.7292 C   0  0  0  0  0  0  0  0  0  0  0  0
   -1.6245    0.4737    0.2318 C   0  0  0  0  0  0  0  0  0  0  0  0
   -3.0166    0.6523    0.2465 C   0  0  0  0  0  0  0  0  0  0  0  0
  1  2  1  0
  2  7  1  0
  2 16  2  0
  3  9  1  0
  4 10  1  0
  4 11  1  0
  5  9  2  0
  6 14  1  0
  6 15  2  0
  7 12  2  0
  8 12  1  0
  8 13  2  0
  8 15  1  0
  9 10  1  0
 11 13  1  0
 11 14  2  0
 15 16  1  0
M  END
