
     RDKit          3D

 13 14  0  0  0  0  0  0  0  0999 V2000
  -21.9707  -33.6252   39.6689 C   0  0  0  0  0  0  0  0  0  0  0  0
  -21.7649  -33.4760   37.2401 N   0  0  0  0  0  0  0  0  0  0  0  0
  -24.5102  -34.1158   41.8932 C   0  0  0  0  0  0  0  0  0  0  0  0
  -24.0089  -33.9889   40.6267 C   0  0  0  0  0  0  0  0  0  0  0  0
  -23.8335  -33.9770   38.2079 C   0  0  2  0  0  0  0  0  0  0  0  0
  -22.2287  -33.4939   36.0144 C   0  0  0  0  0  0  0  0  0  0  0  0
  -24.6517  -34.0925   39.4296 C   0  0  0  0  0  0  0  0  0  0  0  0
  -22.5368  -33.6708   38.3949 C   0  0  0  0  0  0  0  0  0  0  0  0
  -24.1306  -34.7934   42.8966 O   0  0  0  0  0  0  0  0  0  0  0  0
  -25.5992  -34.0225   36.4859 O   0  0  0  0  0  0  0  0  0  0  0  0
  -22.7521  -33.7158   40.8070 C   0  0  0  0  0  0  0  0  0  0  0  0
  -23.5781  -33.6586   35.7500 N   0  0  0  0  0  0  0  0  0  0  0  0
  -24.3699  -33.8937   36.7304 C   0  0  0  0  0  0  0  0  0  0  0  0
  1  8  1  0
  1 11  2  0
  2  6  1  0
  2  8  2  0
  3  4  1  0
  3  9  1  0
  4  7  2  0
  4 11  1  0
  5  7  1  1
  5  8  1  0
  5 13  1  0
  6 12  2  0
 10 13  2  0
 12 13  1  0
M  END
