
     RDKit          3D

 11 12  0  0  0  0  0  0  0  0999 V2000
  -22.7095  -33.8715   38.6506 C   0  0  0  0  0  0  0  0  0  0  0  0
  -24.0367  -33.9403   38.3057 C   0  0  0  0  0  0  0  0  0  0  0  0
  -25.2036  -33.7562   36.0791 N   0  0  0  0  0  0  0  0  0  0  0  0
  -24.6722  -34.1465   39.4912 N   0  0  0  0  0  0  0  0  0  0  0  0
  -21.9714  -33.6811   37.5821 N   0  0  0  0  0  0  0  0  0  0  0  0
  -22.4027  -33.4246   35.0655 C   0  0  0  0  0  0  0  0  0  0  0  0
  -22.5466  -34.0269   39.9763 N   0  0  0  0  0  0  0  0  0  0  0  0
  -23.7814  -34.2146   40.4701 C   0  0  0  0  0  0  0  0  0  0  0  0
  -22.7655  -33.6392   36.4689 C   0  0  0  0  0  0  0  0  0  0  0  0
  -24.1206  -34.4497   41.7505 N   0  0  0  0  0  0  0  0  0  0  0  0
  -24.1404  -33.7934   36.9431 C   0  0  0  0  0  0  0  0  0  0  0  0
  1  2  1  0
  1  5  1  0
  1  7  1  0
  2  4  1  0
  2 11  2  0
  3 11  1  0
  4  8  1  0
  5  9  2  0
  6  9  1  0
  7  8  2  0
  8 10  1  0
  9 11  1  0
M  END
