
     RDKit          3D

 18 19  0  0  0  0  0  0  0  0999 V2000
   32.5937   33.6641  101.7698 O   0  0  0  0  0  0  0  0  0  0  0  0
   26.6391   34.5214  102.7651 C   0  0  0  0  0  0  0  0  0  0  0  0
   25.2703   35.0185  102.5329 C   0  0  0  0  0  0  0  0  0  0  0  0
   30.1736   33.1882  103.3033 O   0  0  0  0  0  0  0  0  0  0  0  0
   25.3002   35.1865  105.0664 C   0  0  0  0  0  0  0  0  0  0  0  0
   23.2260   36.8305  104.4101 O   0  0  0  0  0  0  0  0  0  0  0  0
   29.9695   36.5147  103.0587 O   0  0  0  0  0  0  0  0  0  0  0  0
   30.2220   35.2587  102.9745 C   0  0  0  0  0  0  0  0  0  0  0  0
   32.4322   33.8048  103.0145 C   0  0  0  0  0  0  0  0  0  0  0  0
   24.8157   35.4308  103.7438 C   0  0  0  0  0  0  0  0  0  0  0  0
   24.0034   36.5561  103.3314 C   0  0  0  0  0  0  0  0  0  0  0  0
   26.8828   33.7854  103.5525 C   0  0  0  0  0  0  0  0  0  0  0  0
   29.3865   34.2981  103.5671 C   0  0  0  0  0  0  0  0  0  0  0  0
   31.0336   34.2798  103.1026 N   0  0  0  0  0  0  0  0  0  0  0  0
   26.6961   34.8341  104.9728 C   0  0  0  0  0  0  0  0  0  0  0  0
   25.2456   34.3575  106.2631 O   0  0  0  0  0  0  0  0  0  0  0  0
   25.5268   35.8362  101.4122 O   0  0  0  0  0  0  0  0  0  0  0  0
   28.1515   34.3171  103.6626 N   0  0  0  0  0  0  0  0  0  0  0  0
  1  9  1  0
  2  3  1  0
  2 12  1  0
  3 10  1  0
  3 17  1  0
  4 13  1  0
  4 14  1  0
  5 10  1  0
  5 15  1  0
  5 16  1  0
  6 11  1  0
  7  8  2  0
  8 13  1  0
  8 14  1  0
  9 14  1  0
 10 11  1  0
 12 15  1  0
 12 18  1  0
 13 18  1  0
M  END
$$$$
