
     RDKit          3D

  9  9  0  0  0  0  0  0  0  0999 V2000
    6.5071  -13.4029  -12.5780 N   0  0  0  0  0  0  0  0  0  0  0  0
    7.4593  -12.9330  -14.7416 C   0  0  0  0  0  0  0  0  0  0  0  0
    7.9652  -11.9509  -13.9232 C   0  0  0  0  0  0  0  0  0  0  0  0
    5.9671  -14.8871  -14.2774 O   0  0  0  0  0  0  0  0  0  0  0  0
    7.5678  -11.5165  -11.6884 O   0  0  0  0  0  0  0  0  0  0  0  0
    7.3641  -12.1955  -12.6023 C   0  0  0  0  0  0  0  0  0  0  0  0
    6.6059  -13.8381  -13.9335 C   0  0  0  0  0  0  0  0  0  0  0  0
    8.7811  -10.9681  -14.2280 C   0  0  0  0  0  0  0  0  0  0  0  0
    7.6699  -13.0654  -16.0665 C   0  0  0  0  0  0  0  0  0  0  0  0
  1  6  1  0
  1  7  1  0
  2  3  1  0
  2  7  1  0
  2  9  2  0
  3  6  1  0
  3  8  2  0
  4  7  2  0
  5  6  2  0
M  END
