
     RDKit          3D

 35 36  0  0  0  0  0  0  0  0999 V2000
    2.8793   -0.7465    0.3160 C   0  0  2  0  0  0  0  0  0  0  0  0
    6.9307   -0.5842   -3.2643 C   0  0  0  0  0  0  0  0  0  0  0  0
   -0.7645   -0.4194    1.6724 C   0  0  1  0  0  0  0  0  0  0  0  0
    5.1724   -0.8368   -3.1863 S   0  0  0  0  0  0  0  0  0  0  0  0
   -2.6664    0.4414   -1.5310 O   0  0  0  0  0  0  0  0  0  0  0  0
    3.2994   -0.8326   -1.1504 C   0  0  0  0  0  0  0  0  0  0  0  0
    4.8192   -2.1236   -3.8770 O   0  0  0  0  0  0  0  0  0  0  0  0
    0.8365   -0.0491    3.7467 C   0  0  0  0  0  0  0  0  0  0  0  0
   -2.6368    1.1976    0.7518 C   0  0  2  0  0  0  0  0  0  0  0  0
    3.9400    1.6710    0.8789 C   0  0  0  0  0  0  0  0  0  0  0  0
    3.0756   -2.1909    0.8513 C   0  0  0  0  0  0  0  0  0  0  0  0
   -0.3411    1.3210   -0.0535 O   0  0  0  0  0  0  0  0  0  0  0  0
    1.1874    1.4263    3.5821 C   0  0  0  0  0  0  0  0  0  0  0  0
   -2.8535    2.5685    0.2538 N   0  0  0  0  0  0  0  0  0  0  0  0
    4.4852    0.3125   -3.8686 O   0  0  0  0  0  0  0  0  0  0  0  0
   -3.0553    0.2209   -0.3505 C   0  0  0  0  0  0  0  0  0  0  0  0
   -7.6782   -0.3394   -2.0481 C   0  0  0  0  0  0  0  0  0  0  0  0
   -3.5148    1.0496    2.0176 C   0  0  0  0  0  0  0  0  0  0  0  0
    4.7560    2.0006   -0.3703 C   0  0  0  0  0  0  0  0  0  0  0  0
    0.9631    0.8833   -0.2541 C   0  0  0  0  0  0  0  0  0  0  0  0
    1.6660    1.4784   -1.1119 O   0  0  0  0  0  0  0  0  0  0  0  0
   -1.1188    0.9982    1.0990 C   0  0  2  0  0  0  0  0  0  0  0  0
    4.6819   -0.9110   -1.5274 N   0  0  0  0  0  0  0  0  0  0  0  0
   -5.1780   -0.7195   -3.2453 C   0  0  0  0  0  0  0  0  0  0  0  0
   -5.3991   -1.1758   -1.9349 C   0  0  0  0  0  0  0  0  0  0  0  0
   -6.2035   -0.0820   -3.9507 C   0  0  0  0  0  0  0  0  0  0  0  0
    1.4455   -0.2911    0.4354 N   0  0  0  0  0  0  0  0  0  0  0  0
    3.8258    0.1620    1.1835 C   0  0  0  0  0  0  0  0  0  0  0  0
   -3.8332   -0.9624   -0.0854 N   0  0  0  0  0  0  0  0  0  0  0  0
   -4.2957   -1.8407   -1.1580 C   0  0  0  0  0  0  0  0  0  0  0  0
   -6.6556   -0.9773   -1.3392 C   0  0  0  0  0  0  0  0  0  0  0  0
    0.3504   -1.1721    0.8978 C   0  0  0  0  0  0  0  0  0  0  0  0
   -0.5607   -0.4206    3.2180 C   0  0  0  0  0  0  0  0  0  0  0  0
   -7.4527    0.1073   -3.3530 C   0  0  0  0  0  0  0  0  0  0  0  0
    2.4156   -0.9814   -2.0390 O   0  0  0  0  0  0  0  0  0  0  0  0
  1  6  1  0
  1 11  1  1
  1 27  1  0
  1 28  1  0
  2  4  1  0
  3 22  1  0
  3 32  1  0
  3 33  1  1
  4  7  2  0
  4 15  2  0
  4 23  1  0
  5 16  2  0
  6 23  1  0
  6 35  2  0
  8 13  1  0
  8 33  1  0
  9 14  1  0
  9 16  1  0
  9 18  1  1
  9 22  1  0
 10 19  1  0
 10 28  1  0
 12 20  1  0
 22 12  1  6
 16 29  1  0
 17 31  1  0
 17 34  2  0
 20 21  2  0
 20 27  1  0
 24 25  1  0
 24 26  2  0
 25 30  1  0
 25 31  2  0
 26 34  1  0
 27 32  1  0
 29 30  1  0
M  END
