
     RDKit          3D

 40 44  0  0  0  0  0  0  0  0999 V2000
   -2.8205   -1.2164   -0.5254 C   0  0  0  0  0  0  0  0  0  0  0  0
    7.6366    0.7237   -0.0672 C   0  0  0  0  0  0  0  0  0  0  0  0
   -1.6771   -1.9667   -0.2791 C   0  0  0  0  0  0  0  0  0  0  0  0
    5.1796    0.2596   -0.5294 N   0  0  0  0  0  0  0  0  0  0  0  0
    0.3534    0.8819    2.7538 C   0  0  0  0  0  0  0  0  0  0  0  0
   -5.5168    2.5888   -1.9847 C   0  0  0  0  0  0  0  0  0  0  0  0
    8.9176   -0.4120    1.6653 C   0  0  0  0  0  0  0  0  0  0  0  0
   -5.9633   -0.9587   -0.4272 C   0  0  0  0  0  0  0  0  0  0  0  0
    8.6744    1.6671   -0.1876 C   0  0  0  0  0  0  0  0  0  0  0  0
    0.8272   -0.2987    0.5431 C   0  0  1  0  0  0  0  0  0  0  0  0
    2.2845    0.1545    0.4290 C   0  0  0  0  0  0  0  0  0  0  0  0
   -3.4997    1.7811   -0.1336 C   0  0  0  0  0  0  0  0  0  0  0  0
   -7.7453   -0.2810    1.0661 C   0  0  0  0  0  0  0  0  0  0  0  0
   -3.0246   -0.2164   -1.5954 C   0  0  0  0  0  0  0  0  0  0  0  0
    6.5167    1.4431   -2.0300 O   0  0  0  0  0  0  0  0  0  0  0  0
   -1.0017   -3.7151    1.4069 C   0  0  0  0  0  0  0  0  0  0  0  0
    7.7754   -0.3245    0.8630 C   0  0  0  0  0  0  0  0  0  0  0  0
    1.6052   -0.4195   -1.7971 C   0  0  1  0  0  0  0  0  0  0  0  0
   -3.7493    1.0053   -1.3544 N   0  0  0  0  0  0  0  0  0  0  0  0
   -4.7115    2.6627    0.1820 C   0  0  0  0  0  0  0  0  0  0  0  0
    2.8090   -0.5087   -0.8485 C   0  0  1  0  0  0  0  0  0  0  0  0
   -4.3734    1.7003   -2.4842 C   0  0  0  0  0  0  0  0  0  0  0  0
   -0.0582    0.7194    1.2916 C   0  0  0  0  0  0  0  0  0  0  0  0
    1.6855   -1.3996   -2.8028 O   0  0  0  0  0  0  0  0  0  0  0  0
   -3.1229   -2.5074    1.2750 N   0  0  0  0  0  0  0  0  0  0  0  0
    0.3425   -0.5496   -0.9080 C   0  0  1  0  0  0  0  0  0  0  0  0
   -7.2777   -0.5264   -0.2272 C   0  0  0  0  0  0  0  0  0  0  0  0
   -2.5602   -0.4488   -2.7443 O   0  0  0  0  0  0  0  0  0  0  0  0
    6.4356    0.8289   -0.9307 C   0  0  0  0  0  0  0  0  0  0  0  0
   -5.0755    3.4385   -0.9434 O   0  0  0  0  0  0  0  0  0  0  0  0
   -5.5874   -0.9117    1.9672 C   0  0  0  0  0  0  0  0  0  0  0  0
    4.0393    0.2217   -1.4491 C   0  0  0  0  0  0  0  0  0  0  0  0
    9.9341    0.5380    1.5451 C   0  0  0  0  0  0  0  0  0  0  0  0
   -5.1017   -1.1387    0.6691 C   0  0  0  0  0  0  0  0  0  0  0  0
    9.8136    1.5750    0.6179 C   0  0  0  0  0  0  0  0  0  0  0  0
   -6.9020   -0.4773    2.1627 C   0  0  0  0  0  0  0  0  0  0  0  0
   -1.9035   -2.7335    0.8124 N   0  0  0  0  0  0  0  0  0  0  0  0
   -3.7091   -1.5925    0.4778 C   0  0  0  0  0  0  0  0  0  0  0  0
    3.1049   -1.8700   -0.6194 O   0  0  0  0  0  0  0  0  0  0  0  0
   -0.3827   -1.9138   -1.0579 C   0  0  0  0  0  0  0  0  0  0  0  0
  1  3  2  0
  1 14  1  0
  1 38  1  0
  2  9  1  0
  2 17  2  0
  2 29  1  0
  3 37  1  0
  3 40  1  0
  4 29  1  0
  4 32  1  0
  5 23  1  0
  6 22  1  0
  6 30  1  0
  7 17  1  0
  7 33  2  0
  8 27  1  0
  8 34  2  0
  9 35  2  0
 10 11  1  0
 10 23  1  6
 10 26  1  0
 11 21  1  0
 12 19  1  0
 12 20  1  0
 13 27  2  0
 13 36  1  0
 14 19  1  0
 14 28  2  0
 15 29  2  0
 16 37  1  0
 18 21  1  0
 18 24  1  6
 18 26  1  0
 19 22  1  0
 20 30  1  0
 21 32  1  0
 21 39  1  1
 25 37  1  0
 25 38  2  0
 26 40  1  1
 31 34  1  0
 31 36  2  0
 33 35  1  0
 34 38  1  0
M  END
