
     RDKit          3D

 27 29  0  0  0  0  0  0  0  0999 V2000
   -2.0513   -3.2749   17.7180 O   0  0  0  0  0  0  0  0  0  0  0  0
    2.9059   -0.2643   17.9609 O   0  0  0  0  0  0  0  0  0  0  0  0
    2.5594    0.3120   19.2307 C   0  0  0  0  0  0  0  0  0  0  0  0
    2.6332   -0.8112   20.2630 C   0  0  2  0  0  0  0  0  0  0  0  0
   -0.2502   -4.5594   15.7803 C   0  0  2  0  0  0  0  0  0  0  0  0
    0.4224    0.2537   21.9642 C   0  0  0  0  0  0  0  0  0  0  0  0
   -0.8443   -2.7155   17.4369 C   0  0  0  0  0  0  0  0  0  0  0  0
   -0.2012   -1.9782   18.1694 O   0  0  0  0  0  0  0  0  0  0  0  0
    3.5468   -1.5337   18.2237 C   0  0  2  0  0  0  0  0  0  0  0  0
    5.5869   -2.8868   17.7159 O   0  0  0  0  0  0  0  0  0  0  0  0
   -0.3695   -3.0877   16.0604 C   0  0  1  0  0  0  0  0  0  0  0  0
    1.7784   -5.8953   14.9841 C   0  0  0  0  0  0  0  0  0  0  0  0
    4.4919   -2.1039   17.2034 C   0  0  1  0  0  0  0  0  0  0  0  0
    2.9285   -3.9469   17.9822 O   0  0  0  0  0  0  0  0  0  0  0  0
   -2.5588   -2.9388   19.0133 C   0  0  0  0  0  0  0  0  0  0  0  0
    1.1994   -2.7208   19.9195 O   0  0  0  0  0  0  0  0  0  0  0  0
    1.0053   -3.6802   15.9797 C   0  0  2  0  0  0  0  0  0  0  0  0
    0.9146   -4.6580   14.8547 C   0  0  0  0  0  0  0  0  0  0  0  0
   -0.8305   -2.1390   14.9783 C   0  0  0  0  0  0  0  0  0  0  0  0
    3.1005   -2.6713   17.3366 C   0  0  1  0  0  0  0  0  0  0  0  0
    3.7336   -1.7079   19.7006 C   0  0  1  0  0  0  0  0  0  0  0  0
    0.7967   -4.1843   13.4261 C   0  0  0  0  0  0  0  0  0  0  0  0
   -0.9453   -0.5548   20.0108 C   0  0  0  0  0  0  0  0  0  0  0  0
    1.3147   -1.5754   20.3738 C   0  0  0  0  0  0  0  0  0  0  0  0
    0.1045   -0.9264   21.0539 C   0  0  0  0  0  0  0  0  0  0  0  0
   -3.8950   -3.6326   19.1927 C   0  0  0  0  0  0  0  0  0  0  0  0
    5.0149   -1.1923   20.0898 O   0  0  0  0  0  0  0  0  0  0  0  0
  1  7  1  0
  1 15  1  0
  2  3  1  0
  9  2  1  1
  3  4  1  0
  4 21  1  0
  4 24  1  6
  5 11  1  0
  5 17  1  0
  5 18  1  6
  6 25  1  0
  7  8  2  0
  7 11  1  0
  9 13  1  0
  9 20  1  0
  9 21  1  0
 13 10  1  1
 11 17  1  0
 11 19  1  1
 12 18  1  0
 13 20  1  0
 20 14  1  1
 15 26  1  0
 16 24  2  0
 17 18  1  6
 18 22  1  0
 21 27  1  1
 23 25  1  0
 24 25  1  0
M  END
$$$$
