
     RDKit          3D

  5  4  0  0  0  0  0  0  0  0999 V2000
    7.6117  -13.3073  -14.4948 O   0  0  0  0  0  0  0  0  0  0  0  0
    8.0416  -11.3234  -13.0562 O   0  0  0  0  0  0  0  0  0  0  0  0
    5.9683  -14.2308  -13.2235 O   0  0  0  0  0  0  0  0  0  0  0  0
    6.7840  -13.3442  -13.4192 C   0  0  0  0  0  0  0  0  0  0  0  0
    7.0071  -12.1491  -12.5044 C   0  0  0  0  0  0  0  0  0  0  0  0
  1  4  1  0
  2  5  1  0
  3  4  2  0
  4  5  1  0
M  END
$$$$
