
     RDKit          3D

  7  6  0  0  0  0  0  0  0  0999 V2000
    6.8872  -15.3652  -13.3516 O   0  0  0  0  0  0  0  0  0  0  0  0
    7.9330  -10.7956  -14.1439 O   0  0  0  0  0  0  0  0  0  0  0  0
    6.4549  -13.8019  -11.7834 O   0  0  0  0  0  0  0  0  0  0  0  0
    6.8852  -14.0962  -12.8908 C   0  0  0  0  0  0  0  0  0  0  0  0
    7.0038  -11.3746  -12.1886 O   0  0  0  0  0  0  0  0  0  0  0  0
    7.4515  -13.1060  -13.8533 C   0  0  0  0  0  0  0  0  0  0  0  0
    7.4832  -11.6704  -13.4111 C   0  0  0  0  0  0  0  0  0  0  0  0
  1  4  1  0
  2  7  2  0
  3  4  2  0
  4  6  1  0
  5  7  1  0
  6  7  1  0
M  END
$$$$
