
     RDKit          3D

 10 10  0  0  0  0  0  0  0  0999 V2000
    7.4767  -12.1797  -11.7197 O   0  0  0  0  0  0  0  0  0  0  0  0
    7.4116  -13.0356  -16.3588 O   0  0  0  0  0  0  0  0  0  0  0  0
    7.1889  -12.9755  -15.1665 C   0  0  0  0  0  0  0  0  0  0  0  0
    8.0015  -10.7573  -14.3831 C   0  0  0  0  0  0  0  0  0  0  0  0
    6.1210  -13.3369  -13.1566 N   0  0  0  0  0  0  0  0  0  0  0  0
    5.1554  -14.3072  -15.0144 O   0  0  0  0  0  0  0  0  0  0  0  0
    7.2014  -12.5608  -12.8456 C   0  0  0  0  0  0  0  0  0  0  0  0
    6.0099  -13.6416  -14.4733 C   0  0  0  0  0  0  0  0  0  0  0  0
    7.9899  -12.2557  -14.1114 C   0  0  0  0  0  0  0  0  0  0  0  0
    9.3930  -12.8405  -14.0183 C   0  0  0  0  0  0  0  0  0  0  0  0
  1  7  2  0
  2  3  2  0
  3  8  1  0
  3  9  1  0
  4  9  1  0
  5  7  1  0
  5  8  1  0
  6  8  2  0
  7  9  1  0
  9 10  1  0
M  END
$$$$
