
     RDKit          3D

 18 18  0  0  0  0  0  0  0  0999 V2000
    1.3843   -0.6676   21.3235 C   0  0  0  0  0  0  0  0  0  0  0  0
   -0.6450   -4.1444   16.5326 C   0  0  0  0  0  0  0  0  0  0  0  0
    1.7772   -2.0947   21.0644 C   0  0  0  0  0  0  0  0  0  0  0  0
    4.5413   -2.0214   17.1680 O   0  0  0  0  0  0  0  0  0  0  0  0
    0.7016   -4.9716   14.5733 C   0  0  0  0  0  0  0  0  0  0  0  0
    3.6080   -3.3169   18.9805 O   0  0  0  0  0  0  0  0  0  0  0  0
    3.1650   -2.1537   17.5666 C   0  0  0  0  0  0  0  0  0  0  0  0
    1.6496   -4.1481   16.8071 C   0  0  0  0  0  0  0  0  0  0  0  0
   -1.1500   -3.2149   15.9767 O   0  0  0  0  0  0  0  0  0  0  0  0
    2.5130   -2.8600   16.5142 C   0  0  0  0  0  0  0  0  0  0  0  0
    3.3675   -0.0940   19.9187 C   0  0  0  0  0  0  0  0  0  0  0  0
    3.1844   -2.1426   19.1134 C   0  0  0  0  0  0  0  0  0  0  0  0
    1.8826   -2.2829   19.5483 C   0  0  0  0  0  0  0  0  0  0  0  0
    3.7312   -1.6795   19.7623 C   0  0  0  0  0  0  0  0  0  0  0  0
    2.2203    0.2470   20.6003 C   0  0  0  0  0  0  0  0  0  0  0  0
    3.2296   -3.1161   15.4275 O   0  0  0  0  0  0  0  0  0  0  0  0
   -1.2196   -4.8667   17.5512 O   0  0  0  0  0  0  0  0  0  0  0  0
    0.7037   -4.6153   16.0718 C   0  0  0  0  0  0  0  0  0  0  0  0
  1  3  1  0
  1 15  1  0
  2  9  2  0
  2 17  1  0
  2 18  1  0
  3 13  1  0
  4  7  1  0
  5 18  1  0
  6 12  1  0
  7 10  1  0
  7 12  1  0
  8 10  1  0
  8 18  1  0
 10 16  1  0
 11 14  1  0
 11 15  2  0
 12 13  1  0
 12 14  1  0
M  END
$$$$
