
     RDKit          3D

 15 15  0  0  0  0  0  0  0  0999 V2000
   -2.8930    0.1746    0.3758 C   0  0  0  0  0  0  0  0  0  0  0  0
    0.9697   -0.1306   -1.5757 C   0  0  0  0  0  0  0  0  0  0  0  0
    2.3225   -0.7945   -1.2938 C   0  0  0  0  0  0  0  0  0  0  0  0
   -1.3235   -1.6535    1.0209 C   0  0  0  0  0  0  0  0  0  0  0  0
   -2.6283   -1.0482    0.7431 N   0  0  0  0  0  0  0  0  0  0  0  0
    2.4791   -0.0697    1.4952 O   0  0  0  0  0  0  0  0  0  0  0  0
    4.6464   -0.5093    0.0997 O   0  0  0  0  0  0  0  0  0  0  0  0
   -0.4083   -1.4261   -0.0773 N   0  0  0  0  0  0  0  0  0  0  0  0
   -1.4838   -3.0910    1.2151 N   0  0  0  0  0  0  0  0  0  0  0  0
   -1.8898    1.1789    0.0983 N   0  0  0  0  0  0  0  0  0  0  0  0
   -2.3659    2.4632   -0.4227 C   0  0  0  0  0  0  0  0  0  0  0  0
    3.3817    1.7237   -0.4034 O   0  0  0  0  0  0  0  0  0  0  0  0
   -0.4539    0.9729    0.3275 C   0  0  0  0  0  0  0  0  0  0  0  0
    3.2598    0.0853    0.0012 P   0  0  0  0  0  0  0  0  0  0  0  0
    0.0205   -0.2559   -0.4098 C   0  0  0  0  0  0  0  0  0  0  0  0
  1  5  2  0
  1 10  1  0
  2  3  1  0
  2 15  1  0
  3 14  1  0
  4  5  1  0
  4  8  1  0
  4  9  1  0
  6 14  1  0
  7 14  2  0
  8 15  2  0
 10 11  1  0
 10 13  1  0
 12 14  1  0
 13 15  1  0
M  END
