
     RDKit          3D

 32 35  0  0  0  0  0  0  0  0999 V2000
   24.9642   48.5683   25.7227 O   0  0  0  0  0  0  0  0  0  0  0  0
   28.9639   50.8841   17.3924 N   0  0  0  0  0  0  0  0  0  0  0  0
   27.0337   48.4801   24.4485 C   0  0  0  0  0  0  0  0  0  0  0  0
   26.5599   45.8551   23.5918 O   0  0  0  0  0  0  0  0  0  0  0  0
   27.7610   51.9609   19.0885 C   0  0  0  0  0  0  0  0  0  0  0  0
   27.6087   46.3427   24.0873 C   0  0  0  0  0  0  0  0  0  0  0  0
   25.1896   48.1891   22.1812 O   0  0  0  0  0  0  0  0  0  0  0  0
   28.5349   43.7018   26.1259 C   0  0  0  0  0  0  0  0  0  0  0  0
   25.9352   49.7306   22.9886 C   0  0  0  0  0  0  0  0  0  0  0  0
   28.1543   50.8346   18.4273 C   0  0  0  0  0  0  0  0  0  0  0  0
   30.9705   42.9234   26.7887 O   0  0  0  0  0  0  0  0  0  0  0  0
   27.3040   49.0936   23.1442 C   0  0  0  0  0  0  0  0  0  0  0  0
   24.9656   48.6899   23.4155 C   0  0  0  0  0  0  0  0  0  0  0  0
   26.5027   52.9802   20.8564 C   0  0  0  0  0  0  0  0  0  0  0  0
   26.8941   51.8372   20.1931 C   0  0  0  0  0  0  0  0  0  0  0  0
   28.0939   44.5112   25.5018 N   0  0  0  0  0  0  0  0  0  0  0  0
   26.5731   50.5240   20.6842 N   0  0  0  0  0  0  0  0  0  0  0  0
   25.5171   48.1621   24.5405 C   0  0  0  0  0  0  0  0  0  0  0  0
   28.1686   53.1556   18.6813 N   0  0  0  0  0  0  0  0  0  0  0  0
   28.5444   49.7248   23.3414 O   0  0  0  0  0  0  0  0  0  0  0  0
   32.0878   44.8272   25.1563 N   0  0  0  0  0  0  0  0  0  0  0  0
   28.6812   45.4310   24.6650 C   0  0  0  0  0  0  0  0  0  0  0  0
   27.8311   47.4798   24.4967 N   0  0  0  0  0  0  0  0  0  0  0  0
   30.3851   43.7436   26.0391 C   0  0  0  0  0  0  0  0  0  0  0  0
   25.6027   50.2584   21.6525 C   0  0  0  0  0  0  0  0  0  0  0  0
   26.9325   49.5316   19.9703 C   0  0  0  0  0  0  0  0  0  0  0  0
   27.7323   49.6387   18.8857 N   0  0  0  0  0  0  0  0  0  0  0  0
   26.9226   54.1465   20.3130 C   0  0  0  0  0  0  0  0  0  0  0  0
   27.7377   54.2014   19.2773 C   0  0  0  0  0  0  0  0  0  0  0  0
   25.6610   53.0084   21.9523 C   0  0  0  0  0  0  0  0  0  0  0  0
   30.0457   45.5414   24.5809 C   0  0  0  0  0  0  0  0  0  0  0  0
   30.8126   44.7417   25.2426 C   0  0  0  0  0  0  0  0  0  0  0  0
  1 18  1  0
  2 10  1  0
  3 12  1  0
  3 18  1  0
  3 23  1  0
  4  6  2  0
  5 10  4  0
  5 15  4  0
  5 19  4  0
  6 22  1  0
  6 23  1  0
  7 13  1  0
  8 16  4  0
  8 24  4  0
  9 12  1  0
  9 13  1  0
  9 25  1  0
 10 27  4  0
 11 24  1  0
 12 20  1  0
 13 18  1  0
 14 15  4  0
 14 28  4  0
 14 30  1  0
 15 17  4  0
 16 22  4  0
 17 25  1  0
 17 26  4  0
 19 29  4  0
 21 32  1  0
 22 31  4  0
 24 32  4  0
 26 27  4  0
 28 29  4  0
 31 32  4  0
M  END
$$$$
