
     RDKit          3D

 27 30  0  0  0  0  0  0  0  0999 V2000
   29.3853   44.5212   25.5595 C   0  0  0  0  0  0  0  0  0  0  0  0
   25.8015   48.5777   20.1050 O   0  0  0  0  0  0  0  0  0  0  0  0
   30.9616   44.1897   26.1306 P   0  0  0  0  0  0  0  0  0  0  0  0
   25.3094   52.8841   21.6684 N   0  0  0  0  0  0  0  0  0  0  0  0
   25.3550   47.7339   22.0464 C   0  0  0  0  0  0  0  0  0  0  0  0
   27.3393   51.9981   21.1084 C   0  0  0  0  0  0  0  0  0  0  0  0
   28.0723   49.4857   21.3012 O   0  0  0  0  0  0  0  0  0  0  0  0
   31.0677   45.1055   27.3852 O   0  0  0  0  0  0  0  0  0  0  0  0
   28.3588   53.6280   19.9786 N   0  0  0  0  0  0  0  0  0  0  0  0
   25.7625   47.6286   24.7367 O   0  0  0  0  0  0  0  0  0  0  0  0
   26.5260   45.0433   24.1393 O   0  0  0  0  0  0  0  0  0  0  0  0
   28.3948   46.5155   26.6483 O   0  0  0  0  0  0  0  0  0  0  0  0
   25.7363   49.0052   21.3631 C   0  0  0  0  0  0  0  0  0  0  0  0
   26.3718   51.0746   21.7907 N   0  0  0  0  0  0  0  0  0  0  0  0
   28.4276   52.3362   20.4667 N   0  0  0  0  0  0  0  0  0  0  0  0
   26.8136   49.7173   21.8084 C   0  0  0  0  0  0  0  0  0  0  0  0
   27.2851   54.1412   20.3798 C   0  0  0  0  0  0  0  0  0  0  0  0
   26.6808   46.6229   23.9166 P   0  0  0  0  0  0  0  0  0  0  0  0
   26.5479   47.0032   22.4733 O   0  0  0  0  0  0  0  0  0  0  0  0
   30.8779   42.7505   26.6436 O   0  0  0  0  0  0  0  0  0  0  0  0
   25.2667   51.6955   22.0476 C   0  0  0  0  0  0  0  0  0  0  0  0
   26.4839   53.1328   21.0653 C   0  0  0  0  0  0  0  0  0  0  0  0
   29.5467   43.4522   24.6624 O   0  0  0  0  0  0  0  0  0  0  0  0
   30.1804   45.6445   25.0515 O   0  0  0  0  0  0  0  0  0  0  0  0
   28.2473   46.8054   24.0884 O   0  0  0  0  0  0  0  0  0  0  0  0
   26.7601   55.4374   20.3429 N   0  0  0  0  0  0  0  0  0  0  0  0
   29.1337   46.5491   25.3700 P   0  0  0  0  0  0  0  0  0  0  0  0
  1  3  1  0
  1 23  1  0
  1 24  1  0
  1 27  1  0
  2 13  1  0
  3  8  1  0
  3 20  1  0
  3 24  1  0
  4 21  4  0
  4 22  4  0
  5 13  1  0
  5 19  1  0
  6 14  4  0
  6 15  4  0
  6 22  4  0
  7 16  1  0
  9 15  4  0
  9 17  4  0
 10 18  2  0
 11 18  1  0
 12 27  2  0
 13 16  1  0
 14 16  1  0
 14 21  4  0
 17 22  4  0
 17 26  1  0
 18 19  1  0
 18 25  1  0
 24 27  1  0
 25 27  1  0
M  END
$$$$
