
     RDKit          3D

 32 35  0  0  0  0  0  0  0  0999 V2000
   27.7380   48.5842   25.4991 C   0  0  0  0  0  0  0  0  0  0  0  0
   26.2487   46.7255   22.4865 C   0  0  0  0  0  0  0  0  0  0  0  0
   25.5986   51.0613   21.4996 N   0  0  0  0  0  0  0  0  0  0  0  0
   29.3457   43.1034   24.7703 O   0  0  0  0  0  0  0  0  0  0  0  0
   25.3831   47.6771   22.9498 C   0  0  0  0  0  0  0  0  0  0  0  0
   25.3279   50.2446   24.7347 O   0  0  0  0  0  0  0  0  0  0  0  0
   27.5724   55.6081   20.0768 N   0  0  0  0  0  0  0  0  0  0  0  0
   25.3245   48.4594   26.6268 O   0  0  0  0  0  0  0  0  0  0  0  0
   28.9386   44.0996   25.6686 C   0  0  0  0  0  0  0  0  0  0  0  0
   27.9636   50.8003   19.1277 N   0  0  0  0  0  0  0  0  0  0  0  0
   26.8161   49.2864   20.0534 N   0  0  0  0  0  0  0  0  0  0  0  0
   26.1878   53.3518   21.2314 N   0  0  0  0  0  0  0  0  0  0  0  0
   28.6618   53.7042   18.9105 N   0  0  0  0  0  0  0  0  0  0  0  0
   27.7624   53.9846   19.7727 C   0  0  0  0  0  0  0  0  0  0  0  0
   25.3721   47.8049   24.2429 O   0  0  0  0  0  0  0  0  0  0  0  0
   26.4411   46.8583   22.4384 C   0  0  0  0  0  0  0  0  0  0  0  0
   27.7301   49.5415   19.1925 C   0  0  0  0  0  0  0  0  0  0  0  0
   27.9288   47.2746   26.3483 C   0  0  0  0  0  0  0  0  0  0  0  0
   30.1655   44.0344   26.9360 P   0  0  0  0  0  0  0  0  0  0  0  0
   27.2335   51.5775   19.9074 C   0  0  0  0  0  0  0  0  0  0  0  0
   26.3376   45.4500   23.7137 O   0  0  0  0  0  0  0  0  0  0  0  0
   25.9150   48.9022   25.2673 P   0  0  0  0  0  0  0  0  0  0  0  0
   28.7449   46.3504   25.7530 O   0  0  0  0  0  0  0  0  0  0  0  0
   25.4917   52.4033   21.7773 C   0  0  0  0  0  0  0  0  0  0  0  0
   28.3517   48.3853   24.2689 O   0  0  0  0  0  0  0  0  0  0  0  0
   26.3051   47.8803   20.7366 C   0  0  0  0  0  0  0  0  0  0  0  0
   28.6190   49.6191   23.6821 C   0  0  0  0  0  0  0  0  0  0  0  0
   29.1258   45.4053   26.7158 C   0  0  0  0  0  0  0  0  0  0  0  0
   26.4873   50.6506   20.5698 C   0  0  0  0  0  0  0  0  0  0  0  0
   27.1523   52.9326   20.2392 C   0  0  0  0  0  0  0  0  0  0  0  0
   31.4879   44.0207   26.0682 O   0  0  0  0  0  0  0  0  0  0  0  0
   29.6944   42.8535   27.4734 O   0  0  0  0  0  0  0  0  0  0  0  0
  1 18  1  0
  1 22  1  0
  1 25  1  0
  2  5  1  0
  2 16  1  0
  2 21  1  0
  3 24  1  0
  3 29  2  0
  4  9  1  0
  5 15  1  0
  5 16  1  0
  6 22  2  0
  7 14  2  0
  8 22  1  0
  9 19  1  0
  9 28  1  0
 10 17  2  0
 10 20  1  0
 11 17  1  0
 11 26  1  0
 11 29  1  0
 12 24  2  0
 12 30  1  0
 13 14  1  0
 14 30  1  0
 15 22  1  0
 16 21  1  0
 18 23  1  0
 19 28  1  0
 19 31  2  0
 19 32  1  0
 20 29  1  0
 20 30  2  0
 23 28  1  0
 25 27  1  0
M  END
$$$$
