
     RDKit          3D

 27 28  0  0  0  0  0  0  0  0999 V2000
   26.4208   51.4254   20.9206 C   0  0  0  0  0  0  0  0  0  0  0  0
   29.8732   45.9963   24.0499 O   0  0  0  0  0  0  0  0  0  0  0  0
   27.3086   50.7026   20.2874 N   0  0  0  0  0  0  0  0  0  0  0  0
   26.8072   53.7444   20.2557 N   0  0  0  0  0  0  0  0  0  0  0  0
   29.7962   43.2349   24.9782 O   0  0  0  0  0  0  0  0  0  0  0  0
   26.7058   47.9089   23.4137 C   0  0  0  0  0  0  0  0  0  0  0  0
   28.0033   48.4463   22.7087 O   0  0  0  0  0  0  0  0  0  0  0  0
   29.4616   45.2629   26.1818 O   0  0  0  0  0  0  0  0  0  0  0  0
   26.2682   52.7627   20.9325 C   0  0  0  0  0  0  0  0  0  0  0  0
   26.8418   46.3784   21.9996 O   0  0  0  0  0  0  0  0  0  0  0  0
   31.5442   44.1354   26.4669 O   0  0  0  0  0  0  0  0  0  0  0  0
   30.1456   43.8246   26.3238 P   0  0  0  0  0  0  0  0  0  0  0  0
   25.2849   53.0766   21.7919 N   0  0  0  0  0  0  0  0  0  0  0  0
   24.9803   48.6285   24.7505 O   0  0  0  0  0  0  0  0  0  0  0  0
   25.7602   48.5216   21.5187 O   0  0  0  0  0  0  0  0  0  0  0  0
   28.3912   53.8846   18.9235 N   0  0  0  0  0  0  0  0  0  0  0  0
   27.6860   44.7912   24.3472 O   0  0  0  0  0  0  0  0  0  0  0  0
   24.9100   51.8865   22.3049 C   0  0  0  0  0  0  0  0  0  0  0  0
   25.9851   49.1664   23.8303 C   0  0  0  0  0  0  0  0  0  0  0  0
   29.4727   43.2638   27.4513 O   0  0  0  0  0  0  0  0  0  0  0  0
   28.6361   45.7994   24.9611 P   0  0  0  0  0  0  0  0  0  0  0  0
   25.7116   50.8078   21.7491 N   0  0  0  0  0  0  0  0  0  0  0  0
   25.8160   47.3270   22.5265 C   0  0  0  0  0  0  0  0  0  0  0  0
   27.8376   47.0142   25.5615 O   0  0  0  0  0  0  0  0  0  0  0  0
   27.6859   53.0612   19.6021 C   0  0  0  0  0  0  0  0  0  0  0  0
   27.8747   51.5915   19.6822 C   0  0  0  0  0  0  0  0  0  0  0  0
   25.4385   49.6489   22.5437 C   0  0  0  0  0  0  0  0  0  0  0  0
  1  3  1  0
  1  9  2  0
  1 22  1  0
  2 21  1  0
  3 26  2  0
  4  9  1  0
  4 25  2  0
  5 12  2  0
  6  7  1  0
  6 19  1  0
  6 23  1  0
  8 12  1  0
  8 21  1  0
  9 13  1  0
 10 23  1  0
 11 12  1  0
 12 20  1  0
 13 18  2  0
 14 19  1  0
 15 23  1  0
 15 27  1  0
 16 25  1  0
 17 21  1  0
 18 22  1  0
 19 27  1  0
 21 24  2  0
 22 27  1  0
 25 26  1  0
M  END
$$$$
