
     RDKit          3D

 25 27  0  0  0  0  0  0  0  0999 V2000
   26.8615    8.8762  -14.6009 O   0  0  0  0  0  0  0  0  0  0  0  0
   22.1712   13.3553  -11.7517 C   0  0  0  0  0  0  0  0  0  0  0  0
   21.3268   12.1984   -8.4517 C   0  0  0  0  0  0  0  0  0  0  0  0
   21.5862   10.1504  -13.7960 C   0  0  0  0  0  0  0  0  0  0  0  0
   19.1600   12.4889  -10.8005 C   0  0  0  0  0  0  0  0  0  0  0  0
   20.3511   10.2914  -10.6789 C   0  0  0  0  0  0  0  0  0  0  0  0
   25.4717    9.4923  -16.7501 C   0  0  0  0  0  0  0  0  0  0  0  0
   26.2260    7.0497  -16.2153 O   0  0  0  0  0  0  0  0  0  0  0  0
   21.4542    9.6726   -8.5672 N   0  0  0  0  0  0  0  0  0  0  0  0
   24.3039    9.9578  -13.2489 C   0  0  0  0  0  0  0  0  0  0  0  0
   22.1585   11.0933  -12.9216 C   0  0  0  0  0  0  0  0  0  0  0  0
   23.5359   10.9717  -12.6619 C   0  0  0  0  0  0  0  0  0  0  0  0
   22.2978   13.3010  -10.3853 N   0  0  0  0  0  0  0  0  0  0  0  0
   22.7194   14.1897  -12.4584 O   0  0  0  0  0  0  0  0  0  0  0  0
   21.3751   10.7930   -7.9608 C   0  0  0  0  0  0  0  0  0  0  0  0
   24.4551    7.9965  -14.7400 N   0  0  0  0  0  0  0  0  0  0  0  0
   25.9169    8.2816  -15.5192 S   0  0  0  0  0  0  0  0  0  0  0  0
   21.4527   12.4392   -9.9221 C   0  0  0  0  0  0  0  0  0  0  0  0
   21.5486    9.6095  -10.0201 C   0  0  0  0  0  0  0  0  0  0  0  0
   23.7219    9.0533  -14.1296 C   0  0  0  0  0  0  0  0  0  0  0  0
   21.2965   12.2046  -12.2801 C   0  0  2  0  0  0  0  0  0  0  0  0
   20.3820   12.8316  -13.3604 C   0  0  0  0  0  0  0  0  0  0  0  0
   20.5357   11.8006  -10.9448 C   0  0  2  0  0  0  0  0  0  0  0  0
   21.2942   10.7193   -6.6222 O   0  0  0  0  0  0  0  0  0  0  0  0
   22.3554    9.1401  -14.3851 C   0  0  0  0  0  0  0  0  0  0  0  0
  1 17  2  0
  2 13  1  0
  2 14  2  0
  2 21  1  0
  3 15  1  0
  3 18  1  0
  4 11  2  0
  4 25  1  0
 23  5  1  6
  6 19  1  0
  6 23  1  0
  7 17  1  0
  8 17  2  0
  9 15  2  0
  9 19  1  0
 10 12  2  0
 10 20  1  0
 11 12  1  0
 11 21  1  0
 13 18  2  0
 15 24  1  0
 16 17  1  0
 16 20  1  0
 18 23  1  0
 20 25  2  0
 21 22  1  6
 21 23  1  0
M  END
$$$$
