
     RDKit          3D

 45 48  0  0  0  0  0  0  0  0999 V2000
   -2.1649   16.4211  -27.0776 C   0  0  0  0  0  0  0  0  0  0  0  0
    1.7277   17.7613  -29.1084 C   0  0  0  0  0  0  0  0  0  0  0  0
   -0.0750   19.1349  -27.7254 C   0  0  0  0  0  0  0  0  0  0  0  0
    3.8329   16.8493  -29.7202 C   0  0  0  0  0  0  0  0  0  0  0  0
   -1.4567   17.5325  -27.0301 N   0  0  0  0  0  0  0  0  0  0  0  0
    1.1146   18.9851  -29.7678 C   0  0  0  0  0  0  0  0  0  0  0  0
   -2.7252   10.3181  -28.3807 C   0  0  0  0  0  0  0  0  0  0  0  0
   -0.4236   20.5388  -25.5370 C   0  0  0  0  0  0  0  0  0  0  0  0
   -0.6270   10.8555  -31.0254 C   0  0  0  0  0  0  0  0  0  0  0  0
    1.5471   20.8578  -28.0271 C   0  0  0  0  0  0  0  0  0  0  0  0
   -3.1701    6.8978  -27.7057 O   0  0  0  0  0  0  0  0  0  0  0  0
   -0.8099   17.3270  -23.3935 C   0  0  0  0  0  0  0  0  0  0  0  0
    2.3248   16.8900  -32.4239 N   0  0  0  0  0  0  0  0  0  0  0  0
    2.4066   16.7431  -29.9364 C   0  0  0  0  0  0  0  0  0  0  0  0
   -3.7073    6.3414  -26.5440 C   0  0  0  0  0  0  0  0  0  0  0  0
    0.5991   19.9629  -28.7396 C   0  0  0  0  0  0  0  0  0  0  0  0
   -2.7378    8.9877  -28.5259 N   0  0  0  0  0  0  0  0  0  0  0  0
   -0.4272   17.1320  -28.9507 O   0  0  0  0  0  0  0  0  0  0  0  0
   -2.1501   11.1248  -29.2489 C   0  0  0  0  0  0  0  0  0  0  0  0
   -2.7452   14.3695  -27.8899 N   0  0  0  0  0  0  0  0  0  0  0  0
   -0.6261   17.8845  -28.0388 C   0  0  0  0  0  0  0  0  0  0  0  0
   -2.7149   13.0409  -27.9629 C   0  0  0  0  0  0  0  0  0  0  0  0
   -0.6628   19.4652  -26.4352 C   0  0  0  0  0  0  0  0  0  0  0  0
   -4.5700   19.0807  -25.4600 C   0  0  0  0  0  0  0  0  0  0  0  0
   -3.3381   12.1940  -27.1084 C   0  0  0  0  0  0  0  0  0  0  0  0
   -3.6470   18.1207  -24.9978 C   0  0  0  0  0  0  0  0  0  0  0  0
   -3.3812   16.2256  -26.6589 N   0  0  0  0  0  0  0  0  0  0  0  0
   -2.7478    8.1694  -27.4500 C   0  0  0  0  0  0  0  0  0  0  0  0
   -3.3479   10.8539  -27.2967 C   0  0  0  0  0  0  0  0  0  0  0  0
   -1.7279   15.2631  -27.7488 C   0  0  0  0  0  0  0  0  0  0  0  0
   -0.4847   18.3190  -21.2897 C   0  0  0  0  0  0  0  0  0  0  0  0
   -2.1105   12.4895  -29.0687 C   0  0  0  0  0  0  0  0  0  0  0  0
   -1.6624   18.3214  -23.7630 C   0  0  0  0  0  0  0  0  0  0  0  0
    2.3422   16.7987  -31.3360 C   0  0  0  0  0  0  0  0  0  0  0  0
    1.9034   19.6523  -30.8496 C   0  0  0  0  0  0  0  0  0  0  0  0
   -1.6979   10.2656  -30.3880 O   0  0  0  0  0  0  0  0  0  0  0  0
   -0.5597   16.2084  -24.3387 C   0  0  0  0  0  0  0  0  0  0  0  0
   -2.4283    8.3997  -26.2917 O   0  0  0  0  0  0  0  0  0  0  0  0
   -0.1834   17.2924  -22.1448 C   0  0  0  0  0  0  0  0  0  0  0  0
   -3.7276   15.0767  -27.0870 N   0  0  0  0  0  0  0  0  0  0  0  0
   -2.3454   18.3156  -25.0499 C   0  0  0  0  0  0  0  0  0  0  0  0
   -1.3867   19.3021  -21.7082 C   0  0  0  0  0  0  0  0  0  0  0  0
   -1.5411   18.3864  -26.2611 N   0  0  0  0  0  0  0  0  0  0  0  0
   -1.9978   19.3283  -22.9425 C   0  0  0  0  0  0  0  0  0  0  0  0
    1.9779   15.3712  -29.4738 C   0  0  0  0  0  0  0  0  0  0  0  0
  1  5  1  0
  1 27  1  0
  1 30  2  0
  2  6  1  0
  2 14  1  0
  3 16  1  0
  3 21  1  0
  3 23  2  0
  4 14  1  0
  5 21  1  0
  5 43  1  0
  6 16  1  0
  6 35  1  0
  7 17  1  0
  7 19  2  0
  7 29  1  0
  8 23  1  0
  9 36  1  0
 10 16  1  0
 11 15  1  0
 11 28  1  0
 12 33  1  0
 12 37  1  0
 12 39  2  0
 13 34  3  0
 14 34  1  0
 14 45  1  0
 17 28  1  0
 18 21  2  0
 19 32  1  0
 19 36  1  0
 20 22  1  0
 20 30  1  0
 20 40  1  0
 22 25  1  0
 22 32  2  0
 23 43  1  0
 24 26  1  0
 25 29  2  0
 26 41  2  3
 27 40  2  0
 28 38  2  0
 31 39  1  0
 31 42  2  0
 33 41  1  0
 33 44  2  0
 41 43  1  0
 42 44  1  0
M  END
$$$$
