
     RDKit          3D

  9  8  0  0  0  0  0  0  0  0999 V2000
   13.2733   56.8379   83.0921 C   0  0  0  0  0  0  0  0  0  0  0  0
   11.3100   58.3281   81.1050 P   0  0  0  0  0  0  0  0  0  0  0  0
   10.7696   59.6007   81.1411 O   0  0  0  0  0  0  0  0  0  0  0  0
   14.3746   56.1866   83.9167 C   0  0  0  0  0  0  0  0  0  0  0  0
   10.6181   57.0497   81.1710 O   0  0  0  0  0  0  0  0  0  0  0  0
   12.9028   58.2494   81.0429 C   0  0  0  0  0  0  0  0  0  0  0  0
   13.5540   56.9349   81.5873 C   0  0  0  0  0  0  0  0  0  0  0  0
   15.0891   57.0911   84.7358 O   0  0  0  0  0  0  0  0  0  0  0  0
   15.0829   56.9991   81.2349 C   0  0  0  0  0  0  0  0  0  0  0  0
  1  4  1  0
  1  7  1  0
  2  3  2  0
  2  5  1  0
  2  6  1  0
  4  8  1  0
  6  7  1  0
  7  9  1  0
M  END
$$$$
