
     RDKit          3D

 11 11  0  0  0  0  0  0  0  0999 V2000
    9.8927   58.4839   79.6583 O   0  0  0  0  0  0  0  0  0  0  0  0
   11.1507   58.6092   80.3431 C   0  0  0  0  0  0  0  0  0  0  0  0
   11.5101   56.2381   80.8837 C   0  0  0  0  0  0  0  0  0  0  0  0
   13.5304   56.4659   83.4768 O   0  0  0  0  0  0  0  0  0  0  0  0
   13.6347   56.4864   82.0087 C   0  0  0  0  0  0  0  0  0  0  0  0
   14.4625   58.0713   81.0891 O   0  0  0  0  0  0  0  0  0  0  0  0
   13.4448   57.4729   81.0541 C   0  0  0  0  0  0  0  0  0  0  0  0
   12.2916   55.6429   81.7425 C   0  0  0  0  0  0  0  0  0  0  0  0
   11.8677   60.1296   81.6198 O   0  0  0  0  0  0  0  0  0  0  0  0
   11.2227   59.1681   81.6092 C   0  0  0  0  0  0  0  0  0  0  0  0
   12.0929   57.5536   80.3293 C   0  0  0  0  0  0  0  0  0  0  0  0
  1  2  1  0
  2 10  1  0
  2 11  1  0
  3  8  1  0
  3 11  1  0
  4  5  1  0
  5  7  1  0
  5  8  1  0
  6  7  2  0
  7 11  1  0
  9 10  2  0
M  END
$$$$
