
     RDKit          3D

 11  9  0  0  0  0  0  0  0  0999 V2000
   14.7338   56.8381   81.0768 C   0  0  0  0  0  0  0  0  0  0  0  0
   15.4110   55.6678   83.0646 C   0  0  0  0  0  0  0  0  0  0  0  0
   13.0072   57.0777   79.2987 C   0  0  0  0  0  0  0  0  0  0  0  0
   12.1544   56.2254   80.1612 O   0  0  0  0  0  0  0  0  0  0  0  0
   10.9540   56.7598   80.5280 C   0  0  0  0  0  0  0  0  0  0  0  0
   15.7991   55.9029   80.8622 C   0  0  0  0  0  0  0  0  0  0  0  0
   14.0999   55.9632   81.9199 C   0  0  0  0  0  0  0  0  0  0  0  0
   11.2475   57.7522   81.2224 O   0  0  0  0  0  0  0  0  0  0  0  0
   14.5172   55.1669   83.0341 O   0  0  0  0  0  0  0  0  0  0  0  0
   16.9694   56.7280   80.2531 O   0  0  0  0  0  0  0  0  0  0  0  0
   14.3976   56.9437   79.5911 O   0  0  0  0  0  0  0  0  0  0  0  0
  1  6  1  0
  1  7  1  0
  1 11  1  0
  3  4  1  0
  3 11  1  0
  4  5  1  0
  5  8  1  0
  6 10  1  0
  7  9  1  0
M  END
$$$$
