
     RDKit          3D

 32 35  0  0  0  0  0  0  0  0999 V2000
   13.4420   58.3896   79.7960 C   0  0  0  0  0  0  0  0  0  0  0  0
   15.2853   55.8978   81.0022 C   0  0  0  0  0  0  0  0  0  0  0  0
   16.4777   60.5435   79.8279 C   0  0  0  0  0  0  0  0  0  0  0  0
   11.5029   55.8007   81.6912 C   0  0  0  0  0  0  0  0  0  0  0  0
   13.4065   60.3829   80.8180 C   0  0  0  0  0  0  0  0  0  0  0  0
   14.4228   58.0136   83.2913 O   0  0  0  0  0  0  0  0  0  0  0  0
   10.2538   57.6960   80.3347 C   0  0  0  0  0  0  0  0  0  0  0  0
   18.0065   59.5286   79.4597 C   0  0  0  0  0  0  0  0  0  0  0  0
   16.4624   56.2889   80.3574 C   0  0  0  0  0  0  0  0  0  0  0  0
   15.6959   57.1937   80.3073 C   0  0  0  0  0  0  0  0  0  0  0  0
   16.2811   58.3070   79.4059 C   0  0  0  0  0  0  0  0  0  0  0  0
   15.3793   59.5108   79.8519 C   0  0  0  0  0  0  0  0  0  0  0  0
   13.0874   61.4057   79.9927 O   0  0  0  0  0  0  0  0  0  0  0  0
   13.0560   57.1399   80.5407 O   0  0  0  0  0  0  0  0  0  0  0  0
   11.1967   57.9184   81.1915 C   0  0  0  0  0  0  0  0  0  0  0  0
   17.6104   58.4288   79.7014 C   0  0  0  0  0  0  0  0  0  0  0  0
   12.2520   58.4311   78.9459 O   0  0  0  0  0  0  0  0  0  0  0  0
   15.7705   55.9200   82.3457 O   0  0  0  0  0  0  0  0  0  0  0  0
   12.2396   54.6509   81.6281 O   0  0  0  0  0  0  0  0  0  0  0  0
   14.0300   59.1745   79.9272 C   0  0  0  0  0  0  0  0  0  0  0  0
   19.2769   59.7392   79.7170 C   0  0  0  0  0  0  0  0  0  0  0  0
   13.6482   55.7127   83.8956 O   0  0  0  0  0  0  0  0  0  0  0  0
   10.4232   59.7078   79.2024 O   0  0  0  0  0  0  0  0  0  0  0  0
   18.1085   57.1476   79.2515 C   0  0  0  0  0  0  0  0  0  0  0  0
   20.7766   58.2311   78.9278 O   0  0  0  0  0  0  0  0  0  0  0  0
    9.1251   58.1274   80.8726 O   0  0  0  0  0  0  0  0  0  0  0  0
   14.8846   56.5531   83.4690 P   0  0  0  0  0  0  0  0  0  0  0  0
   20.6827   60.2915   78.3922 O   0  0  0  0  0  0  0  0  0  0  0  0
   11.1592   58.5776   79.7158 C   0  0  0  0  0  0  0  0  0  0  0  0
   20.2864   59.3296   79.0485 C   0  0  0  0  0  0  0  0  0  0  0  0
   15.8412   56.6356   84.6373 O   0  0  0  0  0  0  0  0  0  0  0  0
   12.0082   56.9022   81.3104 C   0  0  0  0  0  0  0  0  0  0  0  0
  1 14  1  0
  1 17  1  0
  1 20  1  0
  2  9  1  0
  2 10  1  0
  2 18  1  0
  3  8  1  0
  3 12  1  0
  4 19  1  0
  4 32  1  0
  5 13  1  0
  5 20  1  0
  6 27  1  0
  7 15  1  0
  7 26  1  0
  7 29  1  0
  8 16  1  0
  8 21  1  0
  9 10  1  0
 10 11  1  0
 11 12  1  0
 11 16  1  0
 12 20  1  0
 14 32  1  0
 15 29  1  0
 15 32  1  0
 16 24  1  0
 17 29  1  0
 18 27  1  0
 21 30  1  0
 22 27  1  0
 23 29  1  0
 25 30  2  0
 27 31  2  0
 28 30  1  0
M  END
$$$$
