
     RDKit          3D

 10  9  0  0  0  0  0  0  0  0999 V2000
  -13.9477   -8.6061   26.0793 C   0  0  0  0  0  0  0  0  0  0  0  0
  -12.1694   -7.8304   21.9940 O   0  0  0  0  0  0  0  0  0  0  0  0
  -12.2409   -7.0039   25.5802 C   0  0  0  0  0  0  0  0  0  0  0  0
  -13.1067   -8.6085   22.5520 C   0  0  0  0  0  0  0  0  0  0  0  0
  -11.8269   -9.9046   24.2236 C   0  0  0  0  0  0  0  0  0  0  0  0
  -13.1358   -7.9167   24.9618 N   0  0  0  0  0  0  0  0  0  0  0  0
  -12.9900   -8.9163   23.9641 C   0  0  0  0  0  0  0  0  0  0  0  0
  -13.9879   -9.0694   21.8318 O   0  0  0  0  0  0  0  0  0  0  0  0
  -10.9062   -9.4666   25.1797 O   0  0  0  0  0  0  0  0  0  0  0  0
  -11.6286  -11.0606   23.6175 O   0  0  0  0  0  0  0  0  0  0  0  0
  1  6  1  0
  2  4  1  0
  3  6  1  0
  4  7  1  0
  4  8  2  0
  5  7  1  0
  5  9  1  0
  5 10  2  0
  6  7  1  0
M  END
