
     RDKit          3D

 25 26  0  0  0  0  0  0  0  0999 V2000
   -3.3182   -1.5232    0.2337 C   0  0  0  0  0  0  0  0  0  0  0  0
   -6.3757    1.4616   -0.1481 N   0  0  0  0  0  0  0  0  0  0  0  0
    5.8919   -1.8307    0.5913 O   0  0  0  0  0  0  0  0  0  0  0  0
   -0.8388   -1.0418    0.0791 C   0  0  0  0  0  0  0  0  0  0  0  0
    2.6125    1.9485   -0.1374 P   0  0  0  0  0  0  0  0  0  0  0  0
   -2.1830    1.6731   -0.4149 N   0  0  0  0  0  0  0  0  0  0  0  0
   -2.8133    0.4961   -0.1836 C   0  0  0  0  0  0  0  0  0  0  0  0
    2.1830    1.4914   -1.5147 O   0  0  0  0  0  0  0  0  0  0  0  0
    4.2980    1.8662   -0.0014 O   0  0  0  0  0  0  0  0  0  0  0  0
   -2.9542    2.7917   -0.5678 C   0  0  0  0  0  0  0  0  0  0  0  0
    4.3060   -1.5737    0.0602 P   0  0  0  0  0  0  0  0  0  0  0  0
   -4.5171   -0.8788    0.1752 N   0  0  0  0  0  0  0  0  0  0  0  0
    2.1221    3.5526    0.0854 O   0  0  0  0  0  0  0  0  0  0  0  0
    3.4696   -0.6716    1.2510 O   0  0  0  0  0  0  0  0  0  0  0  0
    1.3254   -2.5728    1.4260 O   0  0  0  0  0  0  0  0  0  0  0  0
   -0.3142   -0.7971    1.5008 C   0  0  0  0  0  0  0  0  0  0  0  0
    4.3442   -0.8133   -1.2466 O   0  0  0  0  0  0  0  0  0  0  0  0
    1.1653   -1.2048    1.6969 C   0  0  2  0  0  0  0  0  0  0  0  0
    3.5568   -3.0705   -0.1881 O   0  0  0  0  0  0  0  0  0  0  0  0
   -4.1584    0.3921   -0.0909 C   0  0  0  0  0  0  0  0  0  0  0  0
    1.8817    0.9880    1.0703 O   0  0  0  0  0  0  0  0  0  0  0  0
    2.1451   -0.3807    0.8324 C   0  0  0  0  0  0  0  0  0  0  0  0
   -2.2581   -0.7059    0.0073 N   0  0  0  0  0  0  0  0  0  0  0  0
   -4.3216    2.7120   -0.4819 N   0  0  0  0  0  0  0  0  0  0  0  0
   -4.9525    1.5232   -0.2423 C   0  0  0  0  0  0  0  0  0  0  0  0
  1 12  2  0
  1 23  1  0
  2 25  1  0
  3 11  1  0
  4 16  1  0
  4 23  1  0
  5  8  2  0
  5  9  1  0
  5 13  1  0
  5 21  1  0
  6  7  2  0
  6 10  1  0
  7 20  1  0
  7 23  1  0
 10 24  2  0
 11 14  1  0
 11 17  2  0
 11 19  1  0
 12 20  1  0
 14 22  1  0
 18 15  1  6
 16 18  1  0
 18 22  1  0
 20 25  2  0
 21 22  1  0
 24 25  1  0
M  END
