
     RDKit          3D

 20 20  0  0  0  0  0  0  0  0999 V2000
    3.8427    0.4484   -0.9815 O   0  0  0  0  0  0  0  0  0  0  0  0
    0.1242    0.8405   -0.8839 C   0  0  0  0  0  0  0  0  0  0  0  0
    3.9224    0.7894    0.4903 P   0  0  0  0  0  0  0  0  0  0  0  0
    2.1466   -1.2939    0.9435 P   0  0  1  0  0  0  0  0  0  0  0  0
   -0.0400   -0.5061   -0.5261 C   0  0  0  0  0  0  0  0  0  0  0  0
   -2.2148    1.2976   -0.4483 C   0  0  0  0  0  0  0  0  0  0  0  0
   -1.3187   -0.9606   -0.0953 C   0  0  0  0  0  0  0  0  0  0  0  0
    2.4959    0.3374    1.3060 O   0  0  0  0  0  0  0  0  0  0  0  0
   -3.7211   -0.4945    0.1446 O   0  0  0  0  0  0  0  0  0  0  0  0
   -2.4170   -0.0588   -0.1186 C   0  0  0  0  0  0  0  0  0  0  0  0
    4.1277    2.4609    0.6519 O   0  0  0  0  0  0  0  0  0  0  0  0
   -1.5506   -2.3917    0.3366 C   0  0  0  0  0  0  0  0  0  0  0  0
   -0.9432    1.7294   -0.8390 C   0  0  0  0  0  0  0  0  0  0  0  0
    1.1794   -1.3984   -0.6011 C   0  0  0  0  0  0  0  0  0  0  0  0
    3.4062   -2.1233    0.8061 O   0  0  0  0  0  0  0  0  0  0  0  0
    5.2546    0.0090    1.1845 O   0  0  0  0  0  0  0  0  0  0  0  0
   -4.3227    2.2419    0.5993 N   0  0  0  0  0  0  0  0  0  0  0  0
   -3.3271    2.2762   -0.4255 C   0  0  0  0  0  0  0  0  0  0  0  0
    1.2244   -1.9193    2.2177 O   0  0  0  0  0  0  0  0  0  0  0  0
   -3.3810    3.1793   -1.3032 O   0  0  0  0  0  0  0  0  0  0  0  0
  1  3  2  0
  2  5  1  0
  2 13  2  0
  3  8  1  0
  3 11  1  0
  3 16  1  0
  4  8  1  0
  4 14  1  0
  4 15  2  0
  4 19  1  1
  5  7  2  0
  5 14  1  0
  6 10  2  0
  6 13  1  0
  6 18  1  0
  7 10  1  0
  7 12  1  0
  9 10  1  0
 17 18  1  0
 18 20  2  0
M  END
