
     RDKit          3D

 27 29  0  0  0  0  0  0  0  0999 V2000
    2.0735    0.7749    0.0672 C   0  0  0  0  0  0  0  0  0  0  0  0
   -1.2987   -1.6143   -0.6513 C   0  0  0  0  0  0  0  0  0  0  0  0
    3.9208    1.8433   -0.5396 N   0  0  0  0  0  0  0  0  0  0  0  0
    0.6987   -0.1396   -2.8052 C   0  0  2  0  0  0  0  0  0  0  0  0
   -3.7879   -2.4514    1.1584 O   0  0  0  0  0  0  0  0  0  0  0  0
   -3.4275    0.3171    3.0160 P   0  0  0  0  0  0  0  0  0  0  0  0
    1.7287   -0.7881   -1.8975 C   0  0  1  0  0  0  0  0  0  0  0  0
    2.8006    2.4546    1.5808 C   0  0  0  0  0  0  0  0  0  0  0  0
   -0.3251   -1.2349   -2.9593 C   0  0  1  0  0  0  0  0  0  0  0  0
   -2.3049   -1.8090    1.6665 P   0  0  1  0  0  0  0  0  0  0  0  0
    3.7161    3.4778    1.9719 N   0  0  0  0  0  0  0  0  0  0  0  0
    2.9660    1.7342    0.4033 C   0  0  0  0  0  0  0  0  0  0  0  0
    1.2711    0.2374   -4.0306 O   0  0  0  0  0  0  0  0  0  0  0  0
    0.0101   -2.0710   -4.0386 O   0  0  0  0  0  0  0  0  0  0  0  0
   -2.3843   -0.1070    1.7392 O   0  0  0  0  0  0  0  0  0  0  0  0
    2.4301    0.2202   -1.0999 N   0  0  0  0  0  0  0  0  0  0  0  0
   -1.9577   -2.3831    3.0222 O   0  0  0  0  0  0  0  0  0  0  0  0
    3.5526    0.9000   -1.4501 C   0  0  0  0  0  0  0  0  0  0  0  0
    1.7207    2.1520    2.3617 N   0  0  0  0  0  0  0  0  0  0  0  0
   -1.0841   -2.2781    0.5718 O   0  0  0  0  0  0  0  0  0  0  0  0
   -3.6257    1.8158    2.9997 O   0  0  0  0  0  0  0  0  0  0  0  0
    1.0711   -1.7120   -1.0592 O   0  0  0  0  0  0  0  0  0  0  0  0
   -2.7454   -0.1232    4.5015 O   0  0  0  0  0  0  0  0  0  0  0  0
    0.8278    1.1756    1.9990 C   0  0  0  0  0  0  0  0  0  0  0  0
   -4.9349   -0.4347    2.8440 O   0  0  0  0  0  0  0  0  0  0  0  0
    0.9990    0.4759    0.8370 N   0  0  0  0  0  0  0  0  0  0  0  0
   -0.1883   -1.9997   -1.6361 C   0  0  1  0  0  0  0  0  0  0  0  0
  1 12  1  0
  1 16  1  0
  1 26  2  0
  2 20  1  0
 27  2  1  1
  3 12  1  0
  3 18  2  0
  4  7  1  0
  4  9  1  0
  4 13  1  6
 10  5  1  6
  6 15  1  0
  6 21  2  0
  6 23  1  0
  6 25  1  0
  7 16  1  1
  7 22  1  0
  8 11  1  0
  8 12  2  0
  8 19  1  0
  9 14  1  6
  9 27  1  0
 10 15  1  0
 10 17  2  0
 10 20  1  0
 16 18  1  0
 19 24  2  0
 22 27  1  0
 24 26  1  0
M  END
