
     RDKit          3D

 15 16  0  0  0  0  0  0  0  0999 V2000
   35.6808   57.7905   32.1459 N   0  0  0  0  0  0  0  0  0  0  0  0
   36.0562   54.1871   31.3669 C   0  0  0  0  0  0  0  0  0  0  0  0
   35.7978   53.5743   32.5960 C   0  0  0  0  0  0  0  0  0  0  0  0
   37.1948   51.6630   33.0280 O   0  0  0  0  0  0  0  0  0  0  0  0
   35.5888   60.0014   32.8494 N   0  0  0  0  0  0  0  0  0  0  0  0
   36.0190   55.5805   31.2505 C   0  0  0  0  0  0  0  0  0  0  0  0
   34.8304   60.8429   33.6377 C   0  0  0  0  0  0  0  0  0  0  0  0
   33.6746   58.6080   33.8286 S   0  0  0  0  0  0  0  0  0  0  0  0
   35.1150   58.7730   32.8854 C   0  0  0  0  0  0  0  0  0  0  0  0
   35.8677   52.0781   32.7350 C   0  0  0  0  0  0  0  0  0  0  0  0
   33.7466   60.2621   34.2563 C   0  0  0  0  0  0  0  0  0  0  0  0
   35.4879   55.7761   33.5805 C   0  0  0  0  0  0  0  0  0  0  0  0
   35.5252   54.3816   33.7047 C   0  0  0  0  0  0  0  0  0  0  0  0
   32.7316   60.8667   35.1544 C   0  0  0  0  0  0  0  0  0  0  0  0
   35.7378   56.4004   32.3547 C   0  0  0  0  0  0  0  0  0  0  0  0
  1  9  1  0
  1 15  1  0
  2  3  1  0
  2  6  2  0
  3 10  1  0
  3 13  2  0
  4 10  1  0
  5  7  1  0
  5  9  2  0
  6 15  1  0
  7 11  2  0
  8  9  1  0
  8 11  1  0
 11 14  1  0
 12 13  1  0
 12 15  2  0
M  END
$$$$
