
     RDKit          3D

 11 10  0  0  0  0  0  0  0  0999 V2000
   48.5672  -10.2768   23.8523 O   0  0  0  0  0  0  0  0  0  0  0  0
   48.5681  -15.2854   25.3658 O   0  0  0  0  0  0  0  0  0  0  0  0
   49.1710  -12.9023   24.6264 O   0  0  0  0  0  0  0  0  0  0  0  0
   46.1713   -7.9570   26.4129 C   0  0  0  0  0  0  0  0  0  0  0  0
   50.6192  -14.7660   23.9713 O   0  0  0  0  0  0  0  0  0  0  0  0
   47.3087   -8.7108   26.0408 O   0  0  0  0  0  0  0  0  0  0  0  0
   49.0533  -14.4621   24.2096 P   0  0  1  0  0  0  0  0  0  0  0  0
   46.9511  -10.0390   25.6425 C   0  0  0  0  0  0  0  0  0  0  0  0
   47.9559  -12.2749   25.0293 C   0  0  0  0  0  0  0  0  0  0  0  0
   48.2030  -10.7727   25.1507 C   0  0  1  0  0  0  0  0  0  0  0  0
   46.5985   -6.6543   26.7459 O   0  0  0  0  0  0  0  0  0  0  0  0
 10  1  1  6
  2  7  2  0
  3  7  1  0
  3  9  1  0
  4  6  1  0
  4 11  1  0
  7  5  1  6
  6  8  1  0
  8 10  1  0
  9 10  1  0
M  END
$$$$
