
     RDKit          3D

 19 21  0  0  0  0  0  0  0  0999 V2000
   46.4278   -9.8477   26.0732 O   0  0  0  0  0  0  0  0  0  0  0  0
   45.5208   -8.4722   24.1528 O   0  0  0  0  0  0  0  0  0  0  0  0
   48.2570  -13.6058   26.4928 O   0  0  0  0  0  0  0  0  0  0  0  0
   47.7078  -14.8076   25.5565 P   0  0  2  0  0  0  0  0  0  0  0  0
   47.7192   -9.2520   26.0353 C   0  0  0  0  0  0  0  0  0  0  0  0
   49.3993  -10.9793   23.0536 O   0  0  0  0  0  0  0  0  0  0  0  0
   48.3511  -10.4230   23.8698 C   0  0  1  0  0  0  0  0  0  0  0  0
   49.9874   -9.4505   25.3062 O   0  0  0  0  0  0  0  0  0  0  0  0
   48.9629  -11.3520   26.1007 O   0  0  0  0  0  0  0  0  0  0  0  0
   47.8360  -14.1123   24.0965 O   0  0  0  0  0  0  0  0  0  0  0  0
   45.2583   -7.6429   26.4878 O   0  0  0  0  0  0  0  0  0  0  0  0
   48.2838  -11.8362   23.3325 C   0  0  2  0  0  0  0  0  0  0  0  0
   46.1329  -14.7718   25.8338 O   0  0  0  0  0  0  0  0  0  0  0  0
   48.3253  -16.1483   25.7384 O   0  0  0  0  0  0  0  0  0  0  0  0
   45.1667   -8.9785   25.6238 P   0  0  0  0  0  0  0  0  0  0  0  0
   48.1391  -12.4319   25.6934 C   0  0  1  0  0  0  0  0  0  0  0  0
   48.7476  -10.1562   25.3185 C   0  0  1  0  0  0  0  0  0  0  0  0
   48.5767  -12.9134   24.3073 C   0  0  1  0  0  0  0  0  0  0  0  0
   43.8405   -9.6452   25.7094 O   0  0  0  0  0  0  0  0  0  0  0  0
  1  5  1  0
  1 15  1  0
  2 15  1  0
  3  4  1  0
 16  3  1  1
  4 10  1  0
  4 13  1  1
  4 14  2  0
  5 17  1  0
  7  6  1  6
 12  6  1  6
  7 12  1  0
  7 17  1  0
 17  8  1  6
  9 16  1  0
  9 17  1  0
 18 10  1  6
 11 15  1  0
 12 18  1  0
 15 19  2  0
 16 18  1  0
M  END
$$$$
