
     RDKit          3D

 11 10  0  0  0  0  0  0  0  0999 V2000
   63.8129   98.2357   29.3815 C   0  0  1  0  0  0  0  0  0  0  0  0
   62.8901   98.6804   26.9627 C   0  0  1  0  0  0  0  0  0  0  0  0
   63.0448   99.3359   30.1014 C   0  0  0  0  0  0  0  0  0  0  0  0
   62.0497   99.9442   27.1532 C   0  0  0  0  0  0  0  0  0  0  0  0
   63.1886   96.9490   29.4635 O   0  0  0  0  0  0  0  0  0  0  0  0
   63.6561  100.5353   30.0436 O   0  0  0  0  0  0  0  0  0  0  0  0
   64.9096   97.4690   27.3844 O   0  0  0  0  0  0  0  0  0  0  0  0
   64.1069   98.5599   27.9041 C   0  0  2  0  0  0  0  0  0  0  0  0
   61.0710  100.0179   26.1147 O   0  0  0  0  0  0  0  0  0  0  0  0
   61.9832   99.2130   30.6899 O   0  0  0  0  0  0  0  0  0  0  0  0
   62.0226   97.5406   27.1127 O   0  0  0  0  0  0  0  0  0  0  0  0
  1  3  1  0
  1  5  1  6
  1  8  1  0
  2  4  1  0
  2  8  1  0
  2 11  1  1
  3  6  1  0
  3 10  2  0
  4  9  1  0
  8  7  1  6
M  END
$$$$
