
     RDKit          3D

 18 18  0  0  0  0  0  0  0  0999 V2000
   63.4959   98.2373   28.2390 C   0  0  2  0  0  0  0  0  0  0  0  0
   60.9850  102.5167   28.7538 O   0  0  0  0  0  0  0  0  0  0  0  0
   67.3972   98.9281   30.9772 C   0  0  0  0  0  0  0  0  0  0  0  0
   66.5383   99.4301   30.0100 C   0  0  0  0  0  0  0  0  0  0  0  0
   61.2886   99.8857   29.5801 O   0  0  0  0  0  0  0  0  0  0  0  0
   65.3296   98.7694   29.7559 N   0  0  0  0  0  0  0  0  0  0  0  0
   68.8590  100.7799   30.5476 C   0  0  0  0  0  0  0  0  0  0  0  0
   67.9395  101.2135   29.6071 C   0  0  0  0  0  0  0  0  0  0  0  0
   61.3598   98.6142   27.1192 O   0  0  0  0  0  0  0  0  0  0  0  0
   62.8949   97.7621   29.4616 O   0  0  0  0  0  0  0  0  0  0  0  0
   63.7834   97.0334   27.3278 C   0  0  0  0  0  0  0  0  0  0  0  0
   64.8317   98.8965   28.5664 C   0  0  0  0  0  0  0  0  0  0  0  0
   62.1383  100.4072   28.5360 C   0  0  2  0  0  0  0  0  0  0  0  0
   68.5791   99.6125   31.2465 C   0  0  0  0  0  0  0  0  0  0  0  0
   61.3379  101.4977   27.8155 C   0  0  0  0  0  0  0  0  0  0  0  0
   64.3790   97.4358   26.0980 O   0  0  0  0  0  0  0  0  0  0  0  0
   62.5588   99.2747   27.5718 C   0  0  1  0  0  0  0  0  0  0  0  0
   66.7871  100.5664   29.3247 N   0  0  0  0  0  0  0  0  0  0  0  0
  1 10  1  1
  1 11  1  0
  1 12  1  0
  1 17  1  0
  2 15  1  0
  3  4  2  0
  3 14  1  0
  4  6  1  0
  4 18  1  0
 13  5  1  1
  6 12  2  3
  7  8  1  0
  7 14  2  0
  8 18  2  0
 17  9  1  1
 11 16  1  0
 13 15  1  0
 13 17  1  0
M  END
$$$$
