
     RDKit          3D

 34 37  0  0  0  0  0  0  0  0999 V2000
    1.1168    0.2309    0.3178 C   0  0  0  0  0  0  0  0  0  0  0  0
   -3.9922    1.3154    0.2324 C   0  0  0  0  0  0  0  0  0  0  0  0
    5.4083   -1.2780   -1.2910 C   0  0  0  0  0  0  0  0  0  0  0  0
    4.7601   -0.5438   -0.3141 C   0  0  0  0  0  0  0  0  0  0  0  0
   -7.9126   -0.6916    0.2030 C   0  0  0  0  0  0  0  0  0  0  0  0
  -10.1917   -0.6702   -0.6171 N   0  0  0  0  0  0  0  0  0  0  0  0
   -9.1757   -0.0029   -0.1645 C   0  0  0  0  0  0  0  0  0  0  0  0
    6.6069   -1.6554   -0.7158 C   0  0  0  0  0  0  0  0  0  0  0  0
   -6.7434   -2.5962    1.1593 C   0  0  0  0  0  0  0  0  0  0  0  0
   -2.7629    1.9281   -0.0263 C   0  0  0  0  0  0  0  0  0  0  0  0
    3.4213    0.0645   -0.4249 C   0  0  0  0  0  0  0  0  0  0  0  0
   -4.1617   -0.0640    0.0175 C   0  0  0  0  0  0  0  0  0  0  0  0
    1.9058    1.6287   -1.4960 C   0  0  0  0  0  0  0  0  0  0  0  0
    3.1748    1.0534   -1.3870 C   0  0  0  0  0  0  0  0  0  0  0  0
    5.4788    1.7721    1.7918 C   0  0  0  0  0  0  0  0  0  0  0  0
    3.9229   -2.8839   -2.4799 C   0  0  0  0  0  0  0  0  0  0  0  0
    7.1086    4.7565    1.1076 N   0  0  0  0  0  0  0  0  0  0  0  0
    5.5624   -0.4846    0.7726 N   0  0  0  0  0  0  0  0  0  0  0  0
   -9.2859    1.4167   -0.0321 N   0  0  0  0  0  0  0  0  0  0  0  0
    6.6823   -1.1506    0.5315 N   0  0  0  0  0  0  0  0  0  0  0  0
   -7.9355   -1.9569    0.8145 C   0  0  0  0  0  0  0  0  0  0  0  0
    4.8838   -1.7097   -2.6291 C   0  0  0  0  0  0  0  0  0  0  0  0
   -1.8480   -0.1990   -0.7283 C   0  0  0  0  0  0  0  0  0  0  0  0
   -5.5163   -1.9834    0.9008 C   0  0  0  0  0  0  0  0  0  0  0  0
    2.3862   -0.3432    0.4272 C   0  0  0  0  0  0  0  0  0  0  0  0
   -3.0762   -0.8137   -0.4697 C   0  0  0  0  0  0  0  0  0  0  0  0
   -1.6761    1.1748   -0.4892 C   0  0  0  0  0  0  0  0  0  0  0  0
   -5.4671   -0.7170    0.2930 C   0  0  0  0  0  0  0  0  0  0  0  0
    5.3306    0.2609    2.0118 C   0  0  0  0  0  0  0  0  0  0  0  0
    0.8616    1.2096   -0.6591 C   0  0  0  0  0  0  0  0  0  0  0  0
   -6.6730   -0.0785   -0.0523 C   0  0  0  0  0  0  0  0  0  0  0  0
    7.0147    3.6081    1.2148 C   0  0  0  0  0  0  0  0  0  0  0  0
   -0.4293    1.8327   -0.7731 N   0  0  0  0  0  0  0  0  0  0  0  0
    6.8958    2.1523    1.3504 C   0  0  0  0  0  0  0  0  0  0  0  0
  1 25  2  0
  1 30  1  0
  2 10  2  0
  2 12  1  0
  3  4  2  0
  3  8  1  0
  3 22  1  0
  4 11  1  0
  4 18  1  0
  5  7  1  0
  5 21  1  0
  5 31  2  0
  6  7  2  0
  7 19  1  0
  8 20  2  0
  9 21  2  0
  9 24  1  0
 10 27  1  0
 11 14  2  0
 11 25  1  0
 12 26  2  0
 12 28  1  0
 13 14  1  0
 13 30  2  0
 15 29  1  0
 15 34  1  0
 16 22  1  0
 17 32  3  0
 18 20  1  0
 18 29  1  0
 23 26  1  0
 23 27  2  0
 24 28  2  0
 27 33  1  0
 28 31  1  0
 30 33  1  0
 32 34  1  0
M  END
