
     RDKit          3D

 34 38  0  0  0  0  0  0  0  0999 V2000
    3.5393   -3.0405    0.1178 C   0  0  0  0  0  0  0  0  0  0  0  0
    3.1230   -4.7447    0.1346 Cl  0  0  0  0  0  0  0  0  0  0  0  0
    2.8415   -0.7085    0.0656 C   0  0  0  0  0  0  0  0  0  0  0  0
    8.3313    0.8978    0.1141 C   0  0  0  0  0  0  0  0  0  0  0  0
    4.2022   -0.3058    0.0840 C   0  0  0  0  0  0  0  0  0  0  0  0
    5.2195   -1.2913    0.1400 C   0  0  0  0  0  0  0  0  0  0  0  0
    5.9067    1.3858    0.0388 N   0  0  0  0  0  0  0  0  0  0  0  0
    1.5409    1.1420    1.1378 C   0  0  0  0  0  0  0  0  0  0  0  0
   -0.4383    2.0680    0.0759 C   0  0  0  0  0  0  0  0  0  0  0  0
   -3.8459    1.1412   -1.8382 C   0  0  0  0  0  0  0  0  0  0  0  0
   -7.4678   -3.1387   -0.8414 C   0  0  0  0  0  0  0  0  0  0  0  0
    4.8784   -2.6508    0.1593 C   0  0  0  0  0  0  0  0  0  0  0  0
   -5.3252   -0.0729    1.9170 O   0  0  0  0  0  0  0  0  0  0  0  0
    2.5293   -2.0778    0.0700 C   0  0  0  0  0  0  0  0  0  0  0  0
   -2.5764    3.0606   -0.8022 C   0  0  0  0  0  0  0  0  0  0  0  0
   -5.0505    0.5689    3.1580 C   0  0  0  0  0  0  0  0  0  0  0  0
    1.7246    0.2634    0.0594 C   0  0  0  0  0  0  0  0  0  0  0  0
   -4.6741    0.0238   -1.7331 C   0  0  0  0  0  0  0  0  0  0  0  0
    8.8644    0.9096   -1.2459 N   0  0  0  0  0  0  0  0  0  0  0  0
   -3.4699    1.8525   -0.6922 C   0  0  0  0  0  0  0  0  0  0  0  0
   -6.9391   -1.9432   -1.2715 C   0  0  0  0  0  0  0  0  0  0  0  0
   -1.5005    2.9847    0.1341 O   0  0  0  0  0  0  0  0  0  0  0  0
   -0.2574    1.1819   -1.0037 C   0  0  0  0  0  0  0  0  0  0  0  0
    0.8129    0.2829   -1.0062 C   0  0  0  0  0  0  0  0  0  0  0  0
    0.4708    2.0406    1.1398 C   0  0  0  0  0  0  0  0  0  0  0  0
   -4.8018    0.3269    0.6766 C   0  0  0  0  0  0  0  0  0  0  0  0
   -5.9848   -1.5720   -0.3998 N   0  0  0  0  0  0  0  0  0  0  0  0
   -6.8438   -3.5282    0.2886 N   0  0  0  0  0  0  0  0  0  0  0  0
    4.5913    1.0467    0.0173 C   0  0  0  0  0  0  0  0  0  0  0  0
   -5.1471   -0.4034   -0.4813 C   0  0  0  0  0  0  0  0  0  0  0  0
   -3.9608    1.4517    0.5588 C   0  0  0  0  0  0  0  0  0  0  0  0
    6.5657   -0.9035    0.1643 C   0  0  0  0  0  0  0  0  0  0  0  0
    6.8942    0.4561    0.1269 C   0  0  0  0  0  0  0  0  0  0  0  0
   -5.9446   -2.5511    0.5281 C   0  0  0  0  0  0  0  0  0  0  0  0
  1  2  1  0
  1 12  1  0
  1 14  2  0
  3  5  2  0
  3 14  1  0
  3 17  1  0
  4 19  1  0
  4 33  1  0
  5  6  1  0
  5 29  1  0
  6 12  2  0
  6 32  1  0
  7 29  2  0
  7 33  1  0
  8 17  2  0
  8 25  1  0
  9 22  1  0
  9 23  1  0
  9 25  2  0
 10 18  2  0
 10 20  1  0
 11 21  2  0
 11 28  1  0
 13 16  1  0
 13 26  1  0
 15 20  1  0
 15 22  1  0
 17 24  1  0
 18 30  1  0
 20 31  2  0
 21 27  1  0
 23 24  2  0
 26 30  2  0
 26 31  1  0
 27 30  1  0
 27 34  1  0
 28 34  2  0
 32 33  2  0
M  END
