
     RDKit          3D

 31 36  0  0  0  0  0  0  0  0999 V2000
    6.0837    1.4460   -0.9190 C   0  0  0  0  0  0  0  0  0  0  0  0
   -4.3527    1.2881    0.8060 C   0  0  0  0  0  0  0  0  0  0  0  0
   -5.8716   -0.0946    2.3398 C   0  0  0  0  0  0  0  0  0  0  0  0
   -5.6438    4.2225   -1.3302 C   0  0  0  0  0  0  0  0  0  0  0  0
   -0.4565   -2.1462    0.3012 C   0  0  0  0  0  0  0  0  0  0  0  0
    3.8049   -1.2873    0.0982 C   0  0  0  0  0  0  0  0  0  0  0  0
   -2.1925   -1.0597   -1.0070 C   0  0  0  0  0  0  0  0  0  0  0  0
    0.5516   -3.2515    0.4781 C   0  0  0  0  0  0  0  0  0  0  0  0
   -1.2588   -2.0877   -0.8492 C   0  0  0  0  0  0  0  0  0  0  0  0
   -2.3534   -0.0881   -0.0080 C   0  0  0  0  0  0  0  0  0  0  0  0
    4.1456   -0.5226   -2.1754 C   0  0  0  0  0  0  0  0  0  0  0  0
   -0.6113   -1.1688    1.2968 C   0  0  0  0  0  0  0  0  0  0  0  0
   -4.4786    0.4618    2.0645 C   0  0  0  0  0  0  0  0  0  0  0  0
   -3.2573    1.7323   -1.3567 N   0  0  0  0  0  0  0  0  0  0  0  0
   -4.1348    2.7402   -1.4965 C   0  0  0  0  0  0  0  0  0  0  0  0
    5.7874    0.1707   -0.4077 C   0  0  0  0  0  0  0  0  0  0  0  0
    4.5640   -0.5560   -0.8342 C   0  0  0  0  0  0  0  0  0  0  0  0
   -1.5450   -0.1413    1.1388 C   0  0  0  0  0  0  0  0  0  0  0  0
    2.2496   -1.9314   -1.6438 C   0  0  0  0  0  0  0  0  0  0  0  0
   -4.5754    4.0387   -2.6736 S   0  0  0  0  0  0  0  0  0  0  0  0
   -5.2428    2.3865    0.6348 C   0  0  0  0  0  0  0  0  0  0  0  0
   -4.7749   -1.0174    1.8468 C   0  0  0  0  0  0  0  0  0  0  0  0
    1.8902   -2.7005    0.6962 N   0  0  0  0  0  0  0  0  0  0  0  0
    2.6433   -1.9728   -0.2938 C   0  0  0  0  0  0  0  0  0  0  0  0
   -5.1096    3.0881   -0.5403 C   0  0  0  0  0  0  0  0  0  0  0  0
    6.6797   -0.3990    0.5184 C   0  0  0  0  0  0  0  0  0  0  0  0
    7.2364    2.1171   -0.5076 C   0  0  0  0  0  0  0  0  0  0  0  0
    7.7969    0.2755    0.9007 N   0  0  0  0  0  0  0  0  0  0  0  0
    8.0901    1.5094    0.4131 C   0  0  0  0  0  0  0  0  0  0  0  0
   -3.3362    1.0001   -0.1936 C   0  0  0  0  0  0  0  0  0  0  0  0
    2.9973   -1.2082   -2.5745 C   0  0  0  0  0  0  0  0  0  0  0  0
  1 16  2  0
  1 27  1  0
  2 13  1  0
  2 21  1  0
  2 30  2  0
  3 13  1  0
  3 22  1  0
  4 20  1  0
  4 25  1  0
  5  8  1  0
  5  9  1  0
  5 12  2  0
  6 17  1  0
  6 24  2  0
  7  9  2  0
  7 10  1  0
  8 23  1  0
 10 18  2  0
 10 30  1  0
 11 17  2  0
 11 31  1  0
 12 18  1  0
 13 22  1  0
 14 15  2  0
 14 30  1  0
 15 20  1  0
 15 25  1  0
 16 17  1  0
 16 26  1  0
 19 24  1  0
 19 31  2  0
 21 25  2  0
 23 24  1  0
 26 28  2  0
 27 29  2  0
 28 29  1  0
M  END
