
     RDKit          3D

 31 35  0  0  0  0  0  0  0  0999 V2000
    2.3047    2.3265    0.3645 C   0  0  2  0  0  0  0  0  0  0  0  0
    4.8136   -0.8307   -0.9922 C   0  0  0  0  0  0  0  0  0  0  0  0
   -5.9788   -1.1076   -0.5866 C   0  0  0  0  0  0  0  0  0  0  0  0
    5.1643   -0.2574    0.2545 C   0  0  0  0  0  0  0  0  0  0  0  0
    0.1865   -0.0663    1.0561 C   0  0  0  0  0  0  0  0  0  0  0  0
   -2.7747   -1.8596   -0.5423 C   0  0  0  0  0  0  0  0  0  0  0  0
   -3.7848   -1.6418    0.4078 C   0  0  0  0  0  0  0  0  0  0  0  0
    3.7103   -0.3491   -1.7194 C   0  0  0  0  0  0  0  0  0  0  0  0
   -6.6922   -0.1212    0.1152 C   0  0  0  0  0  0  0  0  0  0  0  0
    1.4194    1.9764    1.5588 C   0  0  0  0  0  0  0  0  0  0  0  0
    3.3513   -0.9281   -2.9869 C   0  0  0  0  0  0  0  0  0  0  0  0
    6.3319   -0.8114    0.9831 C   0  0  0  0  0  0  0  0  0  0  0  0
    0.1572    1.4129    1.0523 N   0  0  0  0  0  0  0  0  0  0  0  0
    1.3662    2.3210   -0.8523 C   0  0  2  0  0  0  0  0  0  0  0  0
   -7.3982    0.8744   -1.9772 C   0  0  0  0  0  0  0  0  0  0  0  0
    2.9683    0.6970   -1.1756 C   0  0  0  0  0  0  0  0  0  0  0  0
   -7.4023    0.8628   -0.5797 C   0  0  0  0  0  0  0  0  0  0  0  0
   -1.1945   -0.6240    0.8291 C   0  0  0  0  0  0  0  0  0  0  0  0
   -1.4872   -1.3583   -0.3312 C   0  0  0  0  0  0  0  0  0  0  0  0
   -0.0100    1.9593   -0.3060 C   0  0  0  0  0  0  0  0  0  0  0  0
   -3.4943   -0.8989    1.5629 C   0  0  0  0  0  0  0  0  0  0  0  0
    3.0619   -1.3936   -4.0060 N   0  0  0  0  0  0  0  0  0  0  0  0
    3.2820    1.2472    0.0317 C   0  0  0  0  0  0  0  0  0  0  0  0
    6.9732   -0.1698    1.9670 C   0  0  0  0  0  0  0  0  0  0  0  0
    1.8544    1.2974   -1.7228 O   0  0  0  0  0  0  0  0  0  0  0  0
   -6.6811   -0.0961   -2.6824 C   0  0  0  0  0  0  0  0  0  0  0  0
   -5.1813   -2.1428    0.1590 C   0  0  0  0  0  0  0  0  0  0  0  0
   -2.2069   -0.3974    1.7738 C   0  0  0  0  0  0  0  0  0  0  0  0
    4.3737    0.7963    0.7750 C   0  0  0  0  0  0  0  0  0  0  0  0
    8.1517   -0.7930    2.6439 C   0  0  0  0  0  0  0  0  0  0  0  0
   -5.9696   -1.0819   -1.9915 C   0  0  0  0  0  0  0  0  0  0  0  0
  1 10  1  1
  1 14  1  0
  1 23  1  0
  2  4  2  0
  2  8  1  0
  3  9  2  0
  3 27  1  0
  3 31  1  0
  4 12  1  0
  4 29  1  0
  5 13  1  0
  5 18  1  0
  6  7  1  0
  6 19  2  0
  7 21  2  0
  7 27  1  0
  8 11  1  0
  8 16  2  0
  9 17  1  0
 10 13  1  0
 11 22  3  0
 12 24  2  3
 13 20  1  0
 14 20  1  1
 14 25  1  0
 15 17  2  0
 15 26  1  0
 16 23  1  0
 16 25  1  0
 18 19  1  0
 18 28  2  0
 21 28  1  0
 23 29  2  0
 24 30  1  0
 26 31  2  0
M  END
