
     RDKit          3D

 37 42  0  0  0  0  0  0  0  0999 V2000
   -4.0196   -1.6133    1.4973 C   0  0  0  0  0  0  0  0  0  0  0  0
   -7.3063    0.6070   -1.7961 C   0  0  0  0  0  0  0  0  0  0  0  0
    5.1810    0.4396   -0.4181 C   0  0  0  0  0  0  0  0  0  0  0  0
    7.4589   -0.1891    1.2512 C   0  0  0  0  0  0  0  0  0  0  0  0
    0.7246   -0.3332    0.1276 C   0  0  0  0  0  0  0  0  0  0  0  0
    3.0099    1.5611   -0.4999 C   0  0  0  0  0  0  0  0  0  0  0  0
   -3.8779    1.8734    0.2546 O   0  0  0  0  0  0  0  0  0  0  0  0
    6.1269   -0.6310   -0.8557 C   0  0  0  0  0  0  0  0  0  0  0  0
   -0.6663   -0.8173    0.5206 C   0  0  0  0  0  0  0  0  0  0  0  0
    7.2524   -0.9169   -0.0527 C   0  0  0  0  0  0  0  0  0  0  0  0
    6.8808   -2.3278   -2.4160 C   0  0  0  0  0  0  0  0  0  0  0  0
   -0.7356    1.4026   -0.4061 C   0  0  0  0  0  0  0  0  0  0  0  0
    4.7322    2.3700    1.0029 C   0  0  0  0  0  0  0  0  0  0  0  0
   -4.3668   -2.2865    2.6717 C   0  0  0  0  0  0  0  0  0  0  0  0
    3.4471    2.4712    0.4706 C   0  0  0  0  0  0  0  0  0  0  0  0
   -5.3156   -0.2493    3.5643 C   0  0  0  0  0  0  0  0  0  0  0  0
   -3.9484    0.4774    0.0485 C   0  0  2  0  0  0  0  0  0  0  0  0
    1.6008    1.6445   -1.0257 C   0  0  0  0  0  0  0  0  0  0  0  0
   -4.9697    0.4299    2.3922 C   0  0  0  0  0  0  0  0  0  0  0  0
   -6.0091   -1.2201   -2.7112 C   0  0  0  0  0  0  0  0  0  0  0  0
   -7.1815   -0.4571   -2.6953 C   0  0  0  0  0  0  0  0  0  0  0  0
   -5.0107   -1.6045    3.7058 C   0  0  0  0  0  0  0  0  0  0  0  0
    5.5958    1.3491    0.5816 C   0  0  0  0  0  0  0  0  0  0  0  0
   -9.1289   -1.0282   -4.3154 N   0  0  0  0  0  0  0  0  0  0  0  0
    7.9337   -2.6056   -1.6052 N   0  0  0  0  0  0  0  0  0  0  0  0
    0.6497    1.1256   -0.0246 N   0  0  0  0  0  0  0  0  0  0  0  0
   -4.9608   -0.9159   -1.8378 C   0  0  0  0  0  0  0  0  0  0  0  0
    8.1359   -1.9328   -0.4431 C   0  0  0  0  0  0  0  0  0  0  0  0
   -2.7084    0.0050   -0.4751 O   0  0  0  0  0  0  0  0  0  0  0  0
    3.8727    0.5419   -0.9326 C   0  0  0  0  0  0  0  0  0  0  0  0
    6.9932    1.2673    1.1445 C   0  0  0  0  0  0  0  0  0  0  0  0
   -6.2599    0.9136   -0.9216 C   0  0  0  0  0  0  0  0  0  0  0  0
   -5.0628    0.1706   -0.9454 C   0  0  0  0  0  0  0  0  0  0  0  0
    5.9623   -1.3377   -2.0622 C   0  0  0  0  0  0  0  0  0  0  0  0
   -8.2610   -0.7737   -3.5934 C   0  0  0  0  0  0  0  0  0  0  0  0
   -1.5910    0.3772    0.3220 C   0  0  1  0  0  0  0  0  0  0  0  0
   -4.2967   -0.2396    1.3502 C   0  0  0  0  0  0  0  0  0  0  0  0
  1 14  1  0
  1 37  2  0
  2 21  1  0
  2 32  2  0
  3  8  1  0
  3 23  1  0
  3 30  2  0
  4 10  1  0
  4 31  1  0
  5  9  1  0
  5 26  1  0
  6 15  2  0
  6 18  1  0
  6 30  1  0
 17  7  1  1
  8 10  2  0
  8 34  1  0
  9 36  1  0
 10 28  1  0
 11 25  1  0
 11 34  2  0
 12 26  1  0
 12 36  1  0
 13 15  1  0
 13 23  2  0
 14 22  2  0
 16 19  2  0
 16 22  1  0
 17 29  1  0
 17 33  1  0
 17 37  1  0
 18 26  1  0
 19 37  1  0
 20 21  2  0
 20 27  1  0
 21 35  1  0
 23 31  1  0
 24 35  3  0
 25 28  2  0
 27 33  2  0
 36 29  1  6
 32 33  1  0
M  END
