
     RDKit          3D

 11 12  0  0  0  0  0  0  0  0999 V2000
   45.7942   38.4676   82.5181 C   0  0  0  0  0  0  0  0  0  0  0  0
   46.2047   36.6739   80.3070 C   0  0  0  0  0  0  0  0  0  0  0  0
   43.7905   40.6131   80.6973 C   0  0  0  0  0  0  0  0  0  0  0  0
   46.9233   37.8051   82.4312 C   0  0  0  0  0  0  0  0  0  0  0  0
   44.3900   40.3312   81.7923 N   0  0  0  0  0  0  0  0  0  0  0  0
   46.8495   36.5548   81.6169 C   0  0  2  0  0  0  0  0  0  0  0  0
   44.8523   38.7164   80.3001 C   0  0  0  0  0  0  0  0  0  0  0  0
   45.3558   37.5827   79.7341 C   0  0  0  0  0  0  0  0  0  0  0  0
   45.0302   39.1516   81.5798 C   0  0  0  0  0  0  0  0  0  0  0  0
   48.1089   35.7810   81.6128 C   0  0  0  0  0  0  0  0  0  0  0  0
   44.0523   39.6517   79.7819 N   0  0  0  0  0  0  0  0  0  0  0  0
  1  4  1  0
  1  9  2  0
  2  6  1  0
  2  8  2  0
  3  5  2  0
  3 11  1  0
  4  6  1  0
  5  9  1  0
  6 10  1  6
  7  8  1  0
  7  9  1  0
  7 11  2  0
M  END
