
     RDKit          3D

 10 10  0  0  0  0  0  0  0  0999 V2000
   46.3242   38.9473   82.1305 C   0  0  0  0  0  0  0  0  0  0  0  0
   47.2273   37.0391   80.3333 C   0  0  0  0  0  0  0  0  0  0  0  0
   44.7060   40.9358   79.9269 C   0  0  0  0  0  0  0  0  0  0  0  0
   47.2721   38.0217   82.5433 C   0  0  0  0  0  0  0  0  0  0  0  0
   47.6875   37.0269   81.6523 C   0  0  0  0  0  0  0  0  0  0  0  0
   46.2833   37.9421   79.9148 C   0  0  0  0  0  0  0  0  0  0  0  0
   44.6479   39.5939   80.3976 C   0  0  0  0  0  0  0  0  0  0  0  0
   45.7643   37.9028   78.6510 O   0  0  0  0  0  0  0  0  0  0  0  0
   43.5509   39.0290   80.4916 O   0  0  0  0  0  0  0  0  0  0  0  0
   45.8601   38.9195   80.8371 C   0  0  0  0  0  0  0  0  0  0  0  0
  1  4  1  0
  1 10  2  0
  2  5  1  0
  2  6  2  0
  3  7  1  0
  4  5  2  0
  6  8  1  0
  6 10  1  0
  7  9  2  0
  7 10  1  0
M  END
$$$$
