
     RDKit          3D

 12 12  0  0  0  0  0  0  0  0999 V2000
   45.2288   35.9542   80.0171 C   0  0  0  0  0  0  0  0  0  0  0  0
   49.0512   36.6046   81.5192 N   0  0  0  0  0  0  0  0  0  0  0  0
   44.8260   38.0449   81.2314 C   0  0  0  0  0  0  0  0  0  0  0  0
   44.0497   40.2299   80.6551 C   0  0  0  0  0  0  0  0  0  0  0  0
   44.1022   39.1940   81.5074 N   0  0  0  0  0  0  0  0  0  0  0  0
   46.7674   36.7598   81.6680 C   0  0  0  0  0  0  0  0  0  0  0  0
   48.0676   36.6084   82.3660 C   0  0  0  0  0  0  0  0  0  0  0  0
   46.4026   35.8229   80.7117 C   0  0  0  0  0  0  0  0  0  0  0  0
   44.6877   40.3601   79.6139 O   0  0  0  0  0  0  0  0  0  0  0  0
   46.0096   37.8748   81.9170 C   0  0  0  0  0  0  0  0  0  0  0  0
   44.4204   37.0767   80.3091 C   0  0  0  0  0  0  0  0  0  0  0  0
   43.1969   41.3194   81.1912 C   0  0  0  0  0  0  0  0  0  0  0  0
  1  8  2  0
  1 11  1  0
  2  7  1  0
  3  5  1  0
  3 10  1  0
  3 11  2  0
  4  5  1  0
  4  9  2  0
  4 12  1  0
  6  7  1  0
  6  8  1  0
  6 10  2  0
M  END
$$$$
