
     RDKit          3D

 12 15  0  0  0  0  0  0  0  0999 V2000
   45.7169   38.2785   81.7010 C   0  0  0  0  0  0  0  0  0  0  0  0
   46.8018   37.6571   82.4250 C   0  0  0  0  0  0  0  0  0  0  0  0
   46.4664   36.0377   80.5523 C   0  0  0  0  0  0  0  0  0  0  0  0
   43.7560   37.4500   81.3225 C   0  0  0  0  0  0  0  0  0  0  0  0
   46.5368   36.6972   81.7193 C   0  0  0  0  0  0  0  0  0  0  0  0
   44.7130   36.6360   80.1004 C   0  0  0  0  0  0  0  0  0  0  0  0
   44.3578   40.7007   79.4460 O   0  0  0  0  0  0  0  0  0  0  0  0
   45.9410   38.1351   83.1011 C   0  0  0  0  0  0  0  0  0  0  0  0
   44.1417   40.1778   80.7528 C   0  0  0  0  0  0  0  0  0  0  0  0
   44.5992   38.7622   81.1923 C   0  0  0  0  0  0  0  0  0  0  0  0
   47.7615   36.6772   82.1971 C   0  0  0  0  0  0  0  0  0  0  0  0
   43.5925   40.8311   81.5394 O   0  0  0  0  0  0  0  0  0  0  0  0
  1  2  1  0
  1  5  1  0
  1  8  1  0
  1 10  2  0
  2  5  1  0
  2  8  1  0
  2 11  1  0
  3  5  1  0
  3  6  1  0
  4  6  1  0
  4 10  1  0
  5 11  1  0
  7  9  2  0
  9 10  1  0
  9 12  1  0
M  END
$$$$
