
     RDKit          3D

 11 11  0  0  0  0  0  0  0  0999 V2000
   45.2232   37.1178   82.1091 N   0  0  0  0  0  0  0  0  0  0  0  0
   44.3379   39.3081   82.3028 C   0  0  0  0  0  0  0  0  0  0  0  0
   46.5742   37.0580   82.5476 C   0  0  0  0  0  0  0  0  0  0  0  0
   43.9194   40.5008   81.7701 C   0  0  0  0  0  0  0  0  0  0  0  0
   44.8810   38.5542   80.1290 C   0  0  0  0  0  0  0  0  0  0  0  0
   47.4097   36.2337   81.6272 C   0  0  0  0  0  0  0  0  0  0  0  0
   43.9533   40.7002   80.4232 C   0  0  0  0  0  0  0  0  0  0  0  0
   44.8381   38.2918   81.5133 C   0  0  0  0  0  0  0  0  0  0  0  0
   44.4740   39.7377   79.6172 C   0  0  0  0  0  0  0  0  0  0  0  0
   45.3515   37.6529   79.2291 O   0  0  0  0  0  0  0  0  0  0  0  0
   48.6886   36.8882   81.6552 C   0  0  0  0  0  0  0  0  0  0  0  0
  1  3  1  0
  1  8  1  0
  2  4  1  0
  2  8  2  0
  3  6  1  0
  4  7  2  0
  5  8  1  0
  5  9  2  0
  5 10  1  0
  6 11  1  0
  7  9  1  0
M  END
$$$$
