
     RDKit          3D

 30 32  0  0  0  0  0  0  0  0999 V2000
   35.8991   19.1455   33.3824 O   0  0  0  0  0  0  0  0  0  0  0  0
   35.2883   19.7316   36.8062 O   0  0  0  0  0  0  0  0  0  0  0  0
   37.0947   18.3497   35.9884 C   0  0  0  0  0  0  0  0  0  0  0  0
   39.1102   21.3735   36.3174 O   0  0  0  0  0  0  0  0  0  0  0  0
   37.9121   14.9176   35.9775 C   0  0  0  0  0  0  0  0  0  0  0  0
   36.9365   14.0190   39.5673 C   0  0  0  0  0  0  0  0  0  0  0  0
   32.2353   17.9606   35.9937 C   0  0  0  0  0  0  0  0  0  0  0  0
   34.5701   16.0126   37.7451 C   0  0  0  0  0  0  0  0  0  0  0  0
   33.2786   12.7748   36.2115 C   0  0  0  0  0  0  0  0  0  0  0  0
   36.7014   20.3076   33.6072 C   0  0  0  0  0  0  0  0  0  0  0  0
   35.6818   12.6712   36.1912 C   0  0  0  0  0  0  0  0  0  0  0  0
   34.4465   12.0920   35.9032 C   0  0  0  0  0  0  0  0  0  0  0  0
   32.5570   17.2105   36.9889 N   0  0  0  0  0  0  0  0  0  0  0  0
   38.9686   15.0640   38.5425 C   0  0  0  0  0  0  0  0  0  0  0  0
   38.0313   19.8929   34.2415 C   0  0  0  0  0  0  0  0  0  0  0  0
   38.4949   20.3487   36.6159 C   0  0  0  0  0  0  0  0  0  0  0  0
   34.5882   14.6462   37.0902 C   0  0  0  0  0  0  0  0  0  0  0  0
   35.6257   18.6975   36.2209 C   0  0  0  0  0  0  0  0  0  0  0  0
   33.9275   17.0381   36.9289 N   0  0  0  0  0  0  0  0  0  0  0  0
   34.6122   17.6624   35.7764 C   0  0  1  0  0  0  0  0  0  0  0  0
   39.1955   15.4298   36.1715 C   0  0  0  0  0  0  0  0  0  0  0  0
   39.7180   15.5141   37.4563 C   0  0  0  0  0  0  0  0  0  0  0  0
   37.9167   19.5212   35.6617 N   0  0  0  0  0  0  0  0  0  0  0  0
   38.3888   19.9317   38.0625 C   0  0  0  0  0  0  0  0  0  0  0  0
   37.1279   14.4769   37.0613 C   0  0  0  0  0  0  0  0  0  0  0  0
   35.7795   13.9455   36.7891 C   0  0  0  0  0  0  0  0  0  0  0  0
   37.6842   14.5218   38.3597 C   0  0  0  0  0  0  0  0  0  0  0  0
   33.3496   14.0352   36.8023 C   0  0  0  0  0  0  0  0  0  0  0  0
   33.3110   18.9655   34.1398 O   0  0  0  0  0  0  0  0  0  0  0  0
   33.4077   18.2953   35.1524 C   0  0  0  0  0  0  0  0  0  0  0  0
  1 10  1  0
  2 18  2  0
  3 18  1  0
  3 23  1  0
  4 16  2  0
  5 21  1  0
  5 25  2  0
  6 27  1  0
  7 13  2  0
  7 30  1  0
  8 17  1  0
  8 19  1  0
  9 12  2  0
  9 28  1  0
 10 15  1  0
 11 12  1  0
 11 26  2  0
 13 19  1  0
 14 22  1  0
 14 27  2  0
 15 23  1  0
 16 23  1  0
 16 24  1  0
 17 26  1  0
 17 28  2  0
 20 18  1  1
 19 20  1  0
 20 30  1  0
 21 22  2  0
 25 26  1  0
 25 27  1  0
 29 30  2  0
M  END
$$$$
