
     RDKit          3D

 18 20  0  0  0  0  0  0  0  0999 V2000
  -19.7262   15.2688  -31.4466 C   0  0  0  0  0  0  0  0  0  0  0  0
  -19.5028   15.5470  -29.1333 C   0  0  0  0  0  0  0  0  0  0  0  0
  -20.4069   14.3051  -32.2762 O   0  0  0  0  0  0  0  0  0  0  0  0
  -18.3293   14.8226  -30.9767 C   0  0  0  0  0  0  0  0  0  0  0  0
  -16.0816   15.0923  -28.7039 C   0  0  0  0  0  0  0  0  0  0  0  0
  -20.3995   15.5095  -30.2650 C   0  0  0  0  0  0  0  0  0  0  0  0
  -22.0387   16.7478  -26.3263 N   0  0  0  0  0  0  0  0  0  0  0  0
  -15.3489   15.5094  -27.4000 C   0  0  0  0  0  0  0  0  0  0  0  0
  -21.6806   15.7380  -29.7854 C   0  0  0  0  0  0  0  0  0  0  0  0
  -20.5924   16.1746  -26.3901 C   0  0  0  0  0  0  0  0  0  0  0  0
  -22.5273   16.4153  -27.5103 C   0  0  0  0  0  0  0  0  0  0  0  0
  -20.1630   15.9502  -27.8773 C   0  0  0  0  0  0  0  0  0  0  0  0
  -17.5563   15.2936  -28.5121 C   0  0  0  0  0  0  0  0  0  0  0  0
  -17.9405   15.7267  -27.4235 O   0  0  0  0  0  0  0  0  0  0  0  0
  -18.3330   15.2700  -29.5912 N   0  0  0  0  0  0  0  0  0  0  0  0
  -23.7875   16.5654  -27.7556 O   0  0  0  0  0  0  0  0  0  0  0  0
  -21.5680   16.0178  -28.4018 C   0  0  0  0  0  0  0  0  0  0  0  0
  -19.8558   16.9638  -25.3196 C   0  0  0  0  0  0  0  0  0  0  0  0
  1  3  1  0
  1  4  1  0
  1  6  1  0
  2  6  1  0
  2 12  2  0
  2 15  1  0
  4 15  1  0
  5  8  1  0
  5 13  1  0
  6  9  2  0
  7 10  1  0
  7 11  1  0
  9 17  1  0
 10 12  1  0
 10 18  1  0
 11 16  2  0
 11 17  1  0
 12 17  1  0
 13 14  2  0
 13 15  1  0
M  END
$$$$
