
     RDKit          3D

 19 20  0  0  0  0  0  0  0  0999 V2000
   62.0889  -44.7368  117.4112 O   0  0  0  0  0  0  0  0  0  0  0  0
   60.3177  -44.9093  115.1780 C   0  0  2  0  0  0  0  0  0  0  0  0
   59.4176  -46.9435  114.0314 C   0  0  2  0  0  0  0  0  0  0  0  0
   62.8956  -44.0069  115.0846 O   0  0  0  0  0  0  0  0  0  0  0  0
   60.5581  -46.3195  114.7439 N   0  0  0  0  0  0  0  0  0  0  0  0
   59.8550  -48.3140  113.5215 C   0  0  0  0  0  0  0  0  0  0  0  0
   61.3958  -47.1718  115.4228 C   0  0  0  0  0  0  0  0  0  0  0  0
   61.0198  -44.0650  112.9574 O   0  0  0  0  0  0  0  0  0  0  0  0
   57.5417  -46.5192  110.9833 O   0  0  0  0  0  0  0  0  0  0  0  0
   58.7253  -44.6081  113.2632 C   0  0  0  0  0  0  0  0  0  0  0  0
   57.6343  -46.6024  112.3220 C   0  0  0  0  0  0  0  0  0  0  0  0
   58.9394  -46.0698  112.8542 C   0  0  2  0  0  0  0  0  0  0  0  0
   59.9751  -44.0540  113.9385 C   0  0  1  0  0  0  0  0  0  0  0  0
   56.7152  -47.0499  112.9864 O   0  0  0  0  0  0  0  0  0  0  0  0
   61.6640  -44.1445  116.1098 P   0  0  0  0  0  0  0  0  0  0  0  0
   60.0549  -50.2372  114.8991 O   0  0  0  0  0  0  0  0  0  0  0  0
   61.3848  -48.4594  115.4274 N   0  0  0  0  0  0  0  0  0  0  0  0
   60.4160  -49.0833  114.6853 C   0  0  0  0  0  0  0  0  0  0  0  0
   61.2761  -42.5989  116.2986 O   0  0  0  0  0  0  0  0  0  0  0  0
  1 15  2  0
  2  5  1  0
  2 13  1  0
  2 15  1  6
  3  5  1  0
  3  6  1  6
  3 12  1  0
  4 15  1  0
  5  7  1  0
  6 18  1  0
  7 17  2  0
 13  8  1  6
  9 11  1  0
 10 12  1  0
 10 13  1  0
 12 11  1  1
 11 14  2  0
 15 19  1  0
 16 18  2  0
 17 18  1  0
M  END
$$$$
