
     RDKit          3D

 22 21  0  0  0  0  0  0  0  0999 V2000
   60.1087  -44.1009  114.4098 C   0  0  2  0  0  0  0  0  0  0  0  0
   58.7241  -44.4193  114.5264 O   0  0  0  0  0  0  0  0  0  0  0  0
   62.5107  -44.3802  118.6870 O   0  0  0  0  0  0  0  0  0  0  0  0
   61.0425  -44.7534  116.5405 O   0  0  0  0  0  0  0  0  0  0  0  0
   57.0016  -42.9551  113.4330 O   0  0  0  0  0  0  0  0  0  0  0  0
   57.7512  -47.5906  113.1846 O   0  0  0  0  0  0  0  0  0  0  0  0
   59.1142  -49.9222  112.3444 O   0  0  0  0  0  0  0  0  0  0  0  0
   63.4437  -43.9855  116.3107 O   0  0  0  0  0  0  0  0  0  0  0  0
   57.6990  -44.3822  113.3058 P   0  0  0  0  0  0  0  0  0  0  0  0
   62.9531  -46.3076  117.0320 O   0  0  0  0  0  0  0  0  0  0  0  0
   58.1638  -44.7575  111.9429 O   0  0  0  0  0  0  0  0  0  0  0  0
   60.2708  -46.5774  115.1680 C   0  0  2  0  0  0  0  0  0  0  0  0
   58.9357  -48.0068  113.8593 C   0  0  2  0  0  0  0  0  0  0  0  0
   60.8229  -49.5461  113.7871 O   0  0  0  0  0  0  0  0  0  0  0  0
   61.9901  -43.4288  113.0316 O   0  0  0  0  0  0  0  0  0  0  0  0
   60.6463  -43.9055  112.9826 C   0  0  0  0  0  0  0  0  0  0  0  0
   56.5130  -45.3222  113.8169 O   0  0  0  0  0  0  0  0  0  0  0  0
   59.8319  -46.9085  113.8617 O   0  0  0  0  0  0  0  0  0  0  0  0
   60.9337  -45.1748  115.1707 C   0  0  1  0  0  0  0  0  0  0  0  0
   61.1726  -47.6149  115.5647 O   0  0  0  0  0  0  0  0  0  0  0  0
   62.4646  -44.8001  117.2632 P   0  0  0  0  0  0  0  0  0  0  0  0
   59.6162  -49.2559  113.2412 C   0  0  0  0  0  0  0  0  0  0  0  0
  1  2  1  0
  1 16  1  6
  1 19  1  0
  2  9  1  0
  3 21  2  0
 19  4  1  1
  4 21  1  0
  5  9  1  0
 13  6  1  6
  7 22  2  0
  8 21  1  0
  9 11  2  0
  9 17  1  0
 10 21  1  0
 12 18  1  0
 12 19  1  0
 12 20  1  6
 13 18  1  0
 13 22  1  0
 14 22  1  0
 15 16  1  0
M  END
$$$$
