
     RDKit          3D

 22 23  0  0  0  0  0  0  0  0999 V2000
   61.9460  -46.6095  116.4965 O   0  0  0  0  0  0  0  0  0  0  0  0
   60.6106  -43.8579  113.6188 C   0  0  0  0  0  0  0  0  0  0  0  0
   57.5617  -45.4091  111.7553 P   0  0  0  0  0  0  0  0  0  0  0  0
   59.8526  -44.2776  112.4833 O   0  0  0  0  0  0  0  0  0  0  0  0
   59.0889  -46.2866  113.8596 C   0  0  0  0  0  0  0  0  0  0  0  0
   59.1901  -45.5219  112.5026 C   0  0  0  0  0  0  0  0  0  0  0  0
   63.3028  -44.4776  117.1432 O   0  0  0  0  0  0  0  0  0  0  0  0
   60.0287  -44.5028  114.8209 C   0  0  0  0  0  0  0  0  0  0  0  0
   60.2962  -50.7950  114.5302 C   0  0  0  0  0  0  0  0  0  0  0  0
   56.9445  -46.7720  111.5814 O   0  0  0  0  0  0  0  0  0  0  0  0
   59.8200  -44.3570  117.1766 O   0  0  0  0  0  0  0  0  0  0  0  0
   57.7019  -44.7177  110.3828 O   0  0  0  0  0  0  0  0  0  0  0  0
   60.1136  -46.9808  114.0867 C   0  0  0  0  0  0  0  0  0  0  0  0
   61.1215  -42.7687  116.1243 O   0  0  0  0  0  0  0  0  0  0  0  0
   56.6822  -44.4729  112.7173 O   0  0  0  0  0  0  0  0  0  0  0  0
   59.5681  -45.8563  114.8301 O   0  0  0  0  0  0  0  0  0  0  0  0
   60.7657  -44.1207  116.1123 C   0  0  0  0  0  0  0  0  0  0  0  0
   62.9352  -45.0795  114.7816 O   0  0  0  0  0  0  0  0  0  0  0  0
   59.9349  -49.4723  114.0736 N   0  0  0  0  0  0  0  0  0  0  0  0
   60.1356  -48.3076  114.9026 C   0  0  0  0  0  0  0  0  0  0  0  0
   62.3485  -45.0693  116.1592 P   0  0  0  0  0  0  0  0  0  0  0  0
   59.0861  -49.3889  112.9133 C   0  0  0  0  0  0  0  0  0  0  0  0
  1 21  1  0
  2  4  1  0
  2  8  1  0
  3  6  1  0
  3 10  2  0
  3 12  1  0
  3 15  1  0
  4  6  1  0
  5  6  1  0
  5 13  1  0
  5 16  1  0
  7 21  1  0
  8 16  1  0
  8 17  1  0
  9 19  1  0
 11 17  1  0
 13 16  1  0
 13 20  1  0
 14 17  1  0
 17 21  1  0
 18 21  2  0
 19 20  1  0
 19 22  1  0
M  END
$$$$
