
     RDKit          3D

 11 11  0  0  0  0  0  0  0  0999 V2000
    0.8298   -0.8145    0.8881 O   0  0  0  0  0  0  0  0  0  0  0  0
    1.0908    0.2958    0.0503 C   0  0  2  0  0  0  0  0  0  0  0  0
   -0.4528   -1.2929    0.5676 C   0  0  0  0  0  0  0  0  0  0  0  0
   -1.2963   -0.1112    0.1032 C   0  0  0  0  0  0  0  0  0  0  0  0
    2.7913   -1.3311   -0.9914 N   0  0  0  0  0  0  0  0  0  0  0  0
   -1.9492    0.5949    1.3108 C   0  0  0  0  0  0  0  0  0  0  0  0
    1.7327    1.3978    0.9067 C   0  0  0  0  0  0  0  0  0  0  0  0
   -2.3870   -0.5519   -0.8922 C   0  0  0  0  0  0  0  0  0  0  0  0
   -0.2503    0.7786   -0.5504 C   0  0  0  0  0  0  0  0  0  0  0  0
    2.0710   -0.0963   -1.0425 C   0  0  0  0  0  0  0  0  0  0  0  0
    2.2935    0.7011   -1.9940 O   0  0  0  0  0  0  0  0  0  0  0  0
  1  2  1  0
  1  3  1  0
  2  7  1  1
  2  9  1  0
  2 10  1  0
  3  4  1  0
  4  6  1  0
  4  8  1  0
  4  9  1  0
  5 10  1  0
 10 11  2  0
M  END
