
     RDKit          3D

 18 19  0  0  0  0  0  0  0  0999 V2000
    0.4484   -0.5155    1.2501 C   0  0  0  0  0  0  0  0  0  0  0  0
    0.7788   -0.0739   -0.1540 C   0  0  0  0  0  0  0  0  0  0  0  0
   -2.1964    1.0308   -0.1887 C   0  0  0  0  0  0  0  0  0  0  0  0
   -2.9120   -1.6730    0.1966 C   0  0  0  0  0  0  0  0  0  0  0  0
    4.6434    0.3580   -0.6237 C   0  0  0  0  0  0  0  0  0  0  0  0
   -1.5939   -0.0065   -1.1035 C   0  0  1  0  0  0  0  0  0  0  0  0
   -1.8594    2.2395   -0.3071 O   0  0  0  0  0  0  0  0  0  0  0  0
   -0.1286    0.1203   -1.1471 N   0  0  0  0  0  0  0  0  0  0  0  0
    2.0627    0.1534   -0.6477 C   0  0  0  0  0  0  0  0  0  0  0  0
    3.3881   -0.3544    1.2647 O   0  0  0  0  0  0  0  0  0  0  0  0
   -1.9939   -1.4159   -0.7406 C   0  0  0  0  0  0  0  0  0  0  0  0
   -3.2143    0.6355    0.8060 C   0  0  0  0  0  0  0  0  0  0  0  0
    0.8391   -1.8469    1.4441 O   0  0  0  0  0  0  0  0  0  0  0  0
    3.3550    0.0333    0.0666 C   0  0  0  0  0  0  0  0  0  0  0  0
   -3.8616    1.6185    1.6164 N   0  0  0  0  0  0  0  0  0  0  0  0
   -3.5217   -0.6186    0.9555 N   0  0  0  0  0  0  0  0  0  0  0  0
    1.9140    0.5108   -1.9763 C   0  0  0  0  0  0  0  0  0  0  0  0
    0.5642    0.4805   -2.2470 C   0  0  0  0  0  0  0  0  0  0  0  0
  1  2  1  0
  1 13  1  0
  2  8  1  0
  2  9  2  0
  3  6  1  0
  3  7  2  0
  3 12  1  0
  4 11  2  0
  4 16  1  0
  5 14  1  0
  6  8  1  1
  6 11  1  0
  8 18  1  0
  9 14  1  0
  9 17  1  0
 10 14  2  0
 12 15  1  0
 12 16  2  0
 17 18  2  0
M  END
