
     RDKit          3D

  9  8  0  0  0  0  0  0  0  0999 V2000
    0.2052    0.6324   -0.6570 C   0  0  0  0  0  0  0  0  0  0  0  0
   -1.5130   -1.1276    0.0026 C   0  0  0  0  0  0  0  0  0  0  0  0
    1.3932   -1.1684   -1.6848 O   0  0  0  0  0  0  0  0  0  0  0  0
   -1.8707    1.2830    0.6202 C   0  0  0  0  0  0  0  0  0  0  0  0
    1.3674   -0.3191   -0.7541 C   0  0  0  0  0  0  0  0  0  0  0  0
    3.5075   -1.2072    0.1220 O   0  0  0  0  0  0  0  0  0  0  0  0
   -0.8227    0.1846    0.4037 C   0  0  0  0  0  0  0  0  0  0  0  0
    2.4610   -0.2963    0.2301 C   0  0  0  0  0  0  0  0  0  0  0  0
    2.4575    0.5428    1.1706 O   0  0  0  0  0  0  0  0  0  0  0  0
  1  5  1  0
  1  7  1  0
  2  7  1  0
  3  5  2  0
  4  7  1  0
  5  8  1  0
  6  8  1  0
  8  9  2  0
M  END
