
     RDKit          3D

  9  8  0  0  0  0  0  0  0  0999 V2000
    1.3084    0.6012   -0.5579 C   0  0  0  0  0  0  0  0  0  0  0  0
    0.2406    0.1359    0.2837 N   0  0  0  0  0  0  0  0  0  0  0  0
    2.6927    0.6391   -0.0638 C   0  0  0  0  0  0  0  0  0  0  0  0
   -2.1089   -0.0261    1.0018 C   0  0  0  0  0  0  0  0  0  0  0  0
   -1.1460    0.0511   -0.1876 C   0  0  0  0  0  0  0  0  0  0  0  0
    3.7108    1.1003   -0.8930 O   0  0  0  0  0  0  0  0  0  0  0  0
    2.9645    0.2559    1.1054 O   0  0  0  0  0  0  0  0  0  0  0  0
    1.0662    0.9877   -1.7333 O   0  0  0  0  0  0  0  0  0  0  0  0
   -1.3188   -1.1710   -1.0945 C   0  0  0  0  0  0  0  0  0  0  0  0
  1  2  1  0
  1  3  1  0
  1  8  2  0
  2  5  1  0
  3  6  1  0
  3  7  2  0
  4  5  1  0
  5  9  1  0
M  END
