
     RDKit          3D

 20 21  0  0  0  0  0  0  0  0999 V2000
   13.7638    7.6429   32.9546 C   0  0  0  0  0  0  0  0  0  0  0  0
   10.9491    8.1596   35.4291 O   0  0  0  0  0  0  0  0  0  0  0  0
   14.7674    6.6963   32.3183 C   0  0  0  0  0  0  0  0  0  0  0  0
   13.5944    9.7765   36.9838 C   0  0  0  0  0  0  0  0  0  0  0  0
   10.0348   10.5948   32.6590 C   0  0  0  0  0  0  0  0  0  0  0  0
   10.5370   10.8312   33.9043 C   0  0  0  0  0  0  0  0  0  0  0  0
   13.3213    8.8283   35.9675 C   0  0  0  0  0  0  0  0  0  0  0  0
   11.7861   10.1408   34.4910 N   0  0  0  0  0  0  0  0  0  0  0  0
    8.1165   11.8701   33.1602 C   0  0  0  0  0  0  0  0  0  0  0  0
   14.2388    7.4716   34.3150 N   0  0  0  0  0  0  0  0  0  0  0  0
    8.5924   12.0393   34.4303 C   0  0  0  0  0  0  0  0  0  0  0  0
   17.6056   11.1104   35.8397 C   0  0  0  0  0  0  0  0  0  0  0  0
    8.8309   11.1151   32.2692 C   0  0  0  0  0  0  0  0  0  0  0  0
   14.4132    8.3520   35.2691 C   0  0  0  0  0  0  0  0  0  0  0  0
   16.0065    9.6847   36.6617 C   0  0  0  0  0  0  0  0  0  0  0  0
   11.8921    8.9498   35.2384 C   0  0  0  0  0  0  0  0  0  0  0  0
   14.8776   10.1770   37.3237 C   0  0  0  0  0  0  0  0  0  0  0  0
   15.6723    8.7087   35.6288 C   0  0  0  0  0  0  0  0  0  0  0  0
    9.7999   11.5389   34.8202 C   0  0  0  0  0  0  0  0  0  0  0  0
   17.2971   10.2799   36.9346 O   0  0  0  0  0  0  0  0  0  0  0  0
  1  3  1  0
  1 10  1  0
  2 16  2  0
  4  7  1  0
  4 17  2  0
  5  6  1  0
  5 13  2  0
  6  8  1  0
  6 19  2  0
  7 14  2  0
  7 16  1  0
  8 16  1  0
  9 11  2  0
  9 13  1  0
 10 14  1  0
 11 19  1  0
 12 20  1  0
 14 18  1  0
 15 17  1  0
 15 18  2  0
 15 20  1  0
M  END
$$$$
