
     RDKit          3D

 12 13  0  0  0  0  0  0  0  0999 V2000
   46.4569   53.4783   -1.4976 O   0  0  0  0  0  0  0  0  0  0  0  0
   47.6006   54.3337   -1.4200 C   0  0  1  0  0  0  0  0  0  0  0  0
   46.4770   52.5875   -0.3669 C   0  0  1  0  0  0  0  0  0  0  0  0
   46.4615   51.1444   -0.8651 C   0  0  0  0  0  0  0  0  0  0  0  0
   47.2613   55.5486   -0.7599 O   0  0  0  0  0  0  0  0  0  0  0  0
   46.6471   50.1541    0.2888 C   0  0  1  0  0  0  0  0  0  0  0  0
   47.4213   50.7511    1.4847 C   0  0  0  0  0  0  0  0  0  0  0  0
   49.6158   54.4076   -0.0105 O   0  0  0  0  0  0  0  0  0  0  0  0
   45.3549   49.7361    0.7337 O   0  0  0  0  0  0  0  0  0  0  0  0
   47.7496   52.8912    0.4425 C   0  0  1  0  0  0  0  0  0  0  0  0
   48.4219   51.7426    1.0828 N   0  0  0  0  0  0  0  0  0  0  0  0
   48.6362   53.5578   -0.6041 C   0  0  1  0  0  0  0  0  0  0  0  0
  1  2  1  0
  1  3  1  0
  2  5  1  1
  2 12  1  0
  3  4  1  6
  3 10  1  0
  4  6  1  0
  6  7  1  0
  6  9  1  1
  7 11  1  0
 12  8  1  1
 10 11  1  6
 10 12  1  0
M  END
$$$$
