
     RDKit          3D

 56 61  0  0  0  0  0  0  0  0999 V2000
   38.1076   52.1461   29.2963 C   0  0  0  0  0  0  0  0  0  0  0  0
   30.0635   51.1240   35.2575 C   0  0  0  0  0  0  0  0  0  0  0  0
   35.3595   55.2578   31.7106 N   0  0  0  0  0  0  0  0  0  0  0  0
   24.7563   49.8296   34.8577 O   0  0  0  0  0  0  0  0  0  0  0  0
   42.3760   54.2393   26.1685 O   0  0  0  0  0  0  0  0  0  0  0  0
   40.0459   53.8815   26.5729 C   0  0  0  0  0  0  0  0  0  0  0  0
   30.1894   61.3552   35.6220 C   0  0  0  0  0  0  0  0  0  0  0  0
   31.1726   61.8573   35.5115 C   0  0  0  0  0  0  0  0  0  0  0  0
   29.9717   59.9167   35.5633 C   0  0  0  0  0  0  0  0  0  0  0  0
   31.1579   55.6632   36.6170 C   0  0  0  0  0  0  0  0  0  0  0  0
   33.3251   61.8987   35.1593 C   0  0  0  0  0  0  0  0  0  0  0  0
   32.5282   57.2746   32.3884 C   0  0  0  0  0  0  0  0  0  0  0  0
   36.2714   56.4020   32.0488 C   0  0  0  0  0  0  0  0  0  0  0  0
   31.3556   51.6643   35.1786 C   0  0  0  0  0  0  0  0  0  0  0  0
   34.6149   53.2724   31.2031 C   0  0  0  0  0  0  0  0  0  0  0  0
   25.9039   48.2476   35.8539 O   0  0  0  0  0  0  0  0  0  0  0  0
   31.0214   59.1126   35.4438 C   0  0  0  0  0  0  0  0  0  0  0  0
   35.1147   57.4121   32.3722 C   0  0  0  0  0  0  0  0  0  0  0  0
   35.7252   54.0716   31.2853 C   0  0  0  0  0  0  0  0  0  0  0  0
   26.7421   52.2521   34.4334 C   0  0  0  0  0  0  0  0  0  0  0  0
   41.6060   53.0391   28.1330 C   0  0  0  0  0  0  0  0  0  0  0  0
   40.5857   52.5061   28.9196 C   0  0  0  0  0  0  0  0  0  0  0  0
   37.0052   53.4342   30.9399 C   0  0  0  0  0  0  0  0  0  0  0  0
   29.2052   53.3142   35.6829 C   0  0  0  0  0  0  0  0  0  0  0  0
   41.3273   53.7390   26.9248 C   0  0  0  0  0  0  0  0  0  0  0  0
   39.2854   52.6738   28.5483 C   0  0  0  0  0  0  0  0  0  0  0  0
   27.0628   51.6208   36.9140 C   0  0  0  0  0  0  0  0  0  0  0  0
   30.4285   53.7600   35.5309 N   0  0  0  0  0  0  0  0  0  0  0  0
   32.2371   53.6412   31.6721 C   0  0  0  0  0  0  0  0  0  0  0  0
   33.8467   56.7280   32.7548 C   0  0  0  0  0  0  0  0  0  0  0  0
   27.5053   51.5015   35.4785 C   0  0  0  0  0  0  0  0  0  0  0  0
   32.4489   50.8238   35.0013 F   0  0  0  0  0  0  0  0  0  0  0  0
   33.9984   59.4807   32.2097 C   0  0  0  0  0  0  0  0  0  0  0  0
   28.9845   51.9620   35.4646 C   0  0  0  0  0  0  0  0  0  0  0  0
   35.1725   58.7490   32.3015 C   0  0  0  0  0  0  0  0  0  0  0  0
   39.0837   53.3697   27.3777 C   0  0  0  0  0  0  0  0  0  0  0  0
   34.1371   55.2895   32.0316 C   0  0  0  0  0  0  0  0  0  0  0  0
   32.1101   57.7718   37.9235 Cl  0  0  0  0  0  0  0  0  0  0  0  0
   32.7244   58.9292   32.2536 C   0  0  0  0  0  0  0  0  0  0  0  0
   33.1684   56.6710   32.1578 F   0  0  0  0  0  0  0  0  0  0  0  0
   37.1291   53.1462   29.6544 N   0  0  0  0  0  0  0  0  0  0  0  0
   30.8603   57.7458   35.5277 C   0  0  0  0  0  0  0  0  0  0  0  0
   27.2458   50.0845   35.0420 C   0  0  0  0  0  0  0  0  0  0  0  0
   33.6479   54.0196   31.6395 C   0  0  0  0  0  0  0  0  0  0  0  0
   32.2137   59.7455   35.2344 C   0  0  0  0  0  0  0  0  0  0  0  0
   30.2170   57.1061   34.5107 C   0  0  0  0  0  0  0  0  0  0  0  0
   30.0643   55.7736   34.5402 C   0  0  0  0  0  0  0  0  0  0  0  0
   25.8758   49.4495   35.2546 C   0  0  0  0  0  0  0  0  0  0  0  0
   30.5464   55.0574   35.5460 C   0  0  0  0  0  0  0  0  0  0  0  0
   31.3446   57.0104   36.5857 C   0  0  0  0  0  0  0  0  0  0  0  0
   31.5278   52.9424   35.3397 C   0  0  0  0  0  0  0  0  0  0  0  0
   37.8322   53.1365   31.8347 O   0  0  0  0  0  0  0  0  0  0  0  0
   28.1588   54.1030   35.9537 O   0  0  0  0  0  0  0  0  0  0  0  0
   32.1962   61.0809   35.2189 N   0  0  0  0  0  0  0  0  0  0  0  0
   29.1829   54.9758   33.1361 Cl  0  0  0  0  0  0  0  0  0  0  0  0
   34.2714   56.4558   34.1049 F   0  0  0  0  0  0  0  0  0  0  0  0
  1 26  1  0
  1 41  1  0
  2 14  4  0
  2 34  4  0
  3 13  1  0
  3 19  4  0
  3 37  4  0
  4 48  2  0
  5 25  1  0
  6 25  4  0
  6 36  4  0
  7  8  4  0
  7  9  4  0
  8 54  4  0
  9 17  4  0
 10 49  4  0
 10 50  4  0
 11 54  1  0
 12 30  4  0
 12 39  4  0
 12 40  1  0
 13 18  1  0
 14 32  1  0
 14 51  4  0
 15 19  4  0
 15 44  4  0
 16 48  1  0
 17 42  1  0
 17 45  4  0
 18 30  4  0
 18 35  4  0
 19 23  1  0
 20 31  1  0
 21 22  4  0
 21 25  4  0
 22 26  4  0
 23 41  1  0
 23 52  2  0
 24 28  4  0
 24 34  4  0
 24 53  2  0
 26 36  4  0
 27 31  1  0
 28 49  1  0
 28 51  4  0
 29 44  1  0
 30 37  1  0
 30 56  1  0
 31 34  1  0
 31 43  1  0
 33 35  4  0
 33 39  4  0
 37 44  4  0
 38 50  1  0
 42 46  4  0
 42 50  4  0
 43 48  1  0
 45 54  4  0
 46 47  4  0
 47 49  4  0
 47 55  1  0
M  END
$$$$
