
     RDKit          3D

 18 19  0  0  0  0  0  0  0  0999 V2000
   35.3620   57.7316   30.6269 C   0  0  0  0  0  0  0  0  0  0  0  0
   35.5141   58.6100   31.6742 N   0  0  0  0  0  0  0  0  0  0  0  0
   31.2780   61.2617   35.2374 O   0  0  0  0  0  0  0  0  0  0  0  0
   33.4309   58.3329   33.6249 S   0  0  0  0  0  0  0  0  0  0  0  0
   36.8479   53.8867   31.4835 C   0  0  0  0  0  0  0  0  0  0  0  0
   32.8969   59.9020   34.0653 C   0  0  0  0  0  0  0  0  0  0  0  0
   34.4446   60.4862   32.5785 N   0  0  0  0  0  0  0  0  0  0  0  0
   36.0084   54.4620   32.3551 C   0  0  0  0  0  0  0  0  0  0  0  0
   31.6324   62.0673   36.3064 C   0  0  0  0  0  0  0  0  0  0  0  0
   37.2125   54.4912   30.3391 C   0  0  0  0  0  0  0  0  0  0  0  0
   31.5906   59.0705   35.8169 O   0  0  0  0  0  0  0  0  0  0  0  0
   31.8681   60.0190   35.1169 C   0  0  0  0  0  0  0  0  0  0  0  0
   33.5226   60.9018   33.4491 C   0  0  0  0  0  0  0  0  0  0  0  0
   34.5291   59.1041   32.5343 C   0  0  0  0  0  0  0  0  0  0  0  0
   37.2338   52.6424   31.8013 O   0  0  0  0  0  0  0  0  0  0  0  0
   35.5720   55.6884   32.0583 C   0  0  0  0  0  0  0  0  0  0  0  0
   36.7285   55.7148   30.1162 C   0  0  0  0  0  0  0  0  0  0  0  0
   35.8905   56.3833   30.9312 C   0  0  0  0  0  0  0  0  0  0  0  0
  1  2  1  0
  1 18  1  0
  2 14  1  0
  3  9  1  0
  3 12  1  0
  4  6  1  0
  4 14  1  0
  5  8  1  0
  5 10  2  0
  5 15  1  0
  6 12  1  0
  6 13  2  0
  7 13  1  0
  7 14  2  0
  8 16  2  0
 10 17  1  0
 11 12  2  0
 16 18  1  0
 17 18  2  0
M  END
$$$$
