
     RDKit          3D

 19 21  0  0  0  0  0  0  0  0999 V2000
   36.5166   56.0762   31.0780 C   0  0  0  0  0  0  0  0  0  0  0  0
   33.8341   58.6826   33.6636 C   0  0  0  0  0  0  0  0  0  0  0  0
   33.9125   57.3468   33.4016 C   0  0  0  0  0  0  0  0  0  0  0  0
   36.7964   52.3777   30.3574 C   0  0  0  0  0  0  0  0  0  0  0  0
   31.0918   60.7849   36.0273 C   0  0  0  0  0  0  0  0  0  0  0  0
   35.5039   56.0743   31.9889 C   0  0  0  0  0  0  0  0  0  0  0  0
   31.9341   61.4399   35.1255 C   0  0  0  0  0  0  0  0  0  0  0  0
   36.5059   53.6686   30.9979 C   0  0  0  0  0  0  0  0  0  0  0  0
   37.0150   54.8754   30.5621 C   0  0  0  0  0  0  0  0  0  0  0  0
   31.1228   59.3945   36.1564 C   0  0  0  0  0  0  0  0  0  0  0  0
   35.4257   53.6828   31.7938 C   0  0  0  0  0  0  0  0  0  0  0  0
   32.8910   59.3483   34.4834 C   0  0  0  0  0  0  0  0  0  0  0  0
   34.9563   57.2656   32.5219 C   0  0  0  0  0  0  0  0  0  0  0  0
   35.9461   51.3000   30.8583 N   0  0  0  0  0  0  0  0  0  0  0  0
   32.0443   58.6725   35.3852 C   0  0  0  0  0  0  0  0  0  0  0  0
   32.8490   60.7300   34.3442 C   0  0  0  0  0  0  0  0  0  0  0  0
   35.4766   58.4408   32.2505 N   0  0  0  0  0  0  0  0  0  0  0  0
   34.8873   54.9461   32.3211 C   0  0  0  0  0  0  0  0  0  0  0  0
   34.7773   59.2991   32.9594 N   0  0  0  0  0  0  0  0  0  0  0  0
  1  6  1  0
  1  9  2  0
  2  3  2  0
  2 12  1  0
  2 19  1  0
  3 13  1  0
  4  8  1  0
  4 14  1  0
  5  7  2  0
  5 10  1  0
  6 13  1  0
  6 18  2  0
  7 16  1  0
  8  9  1  0
  8 11  2  0
 10 15  2  0
 11 18  1  0
 12 15  1  0
 12 16  2  0
 13 17  2  0
 17 19  1  0
M  END
$$$$
