
     RDKit          3D

 18 20  0  0  0  0  0  0  0  0999 V2000
   63.1803   54.8263  108.5689 C   0  0  0  0  0  0  0  0  0  0  0  0
   61.2547   53.4237  107.8198 O   0  0  0  0  0  0  0  0  0  0  0  0
   62.8152   55.5007  107.1685 C   0  0  0  0  0  0  0  0  0  0  0  0
   61.7441   56.5675  107.5936 C   0  0  0  0  0  0  0  0  0  0  0  0
   63.7347   56.1081  110.7737 C   0  0  0  0  0  0  0  0  0  0  0  0
   63.2327   49.9200  110.9612 C   0  0  0  0  0  0  0  0  0  0  0  0
   62.8330   51.9472  109.5933 N   0  0  0  0  0  0  0  0  0  0  0  0
   63.6979   56.1463  109.2634 C   0  0  0  0  0  0  0  0  0  0  0  0
   63.7481   52.8181  109.9183 C   0  0  0  0  0  0  0  0  0  0  0  0
   62.8536   57.2332  111.1979 C   0  0  0  0  0  0  0  0  0  0  0  0
   62.2356   51.0728  110.5784 C   0  0  0  0  0  0  0  0  0  0  0  0
   64.1465   52.9431  111.0627 O   0  0  0  0  0  0  0  0  0  0  0  0
   61.8710   57.4340  110.1126 C   0  0  0  0  0  0  0  0  0  0  0  0
   62.6159   57.1705  108.8366 C   0  0  0  0  0  0  0  0  0  0  0  0
   61.6902   54.3986  108.7304 C   0  0  0  0  0  0  0  0  0  0  0  0
   64.1777   53.6678  108.7895 C   0  0  0  0  0  0  0  0  0  0  0  0
   60.8793   55.5341  108.2286 C   0  0  0  0  0  0  0  0  0  0  0  0
   65.0783   56.5199  108.7222 C   0  0  0  0  0  0  0  0  0  0  0  0
  1  3  1  0
  1  8  1  0
  1 15  1  0
  1 16  1  0
  2 15  1  0
  3  4  1  0
  4 14  1  0
  4 17  1  0
  5  8  1  0
  5 10  1  0
  6 11  1  0
  7  9  1  0
  7 11  1  0
  8 14  1  0
  8 18  1  0
  9 12  2  0
  9 16  1  0
 10 13  1  0
 13 14  1  0
 15 17  1  0
M  END
$$$$
