
     RDKit          3D

 30 33  0  0  0  0  0  0  0  0999 V2000
    4.9336  -10.7824   21.6374 C   0  0  0  0  0  0  0  0  0  0  0  0
    3.1540  -10.6043   12.1259 C   0  0  0  0  0  0  0  0  0  0  0  0
    5.5049  -12.0167   21.8545 C   0  0  0  0  0  0  0  0  0  0  0  0
    2.3638   -6.3864   16.7400 C   0  0  0  0  0  0  0  0  0  0  0  0
    2.1758  -10.7704   16.6095 C   0  0  0  0  0  0  0  0  0  0  0  0
    3.7929   -9.1751   15.8807 O   0  0  0  0  0  0  0  0  0  0  0  0
    2.8828   -7.2161   17.8682 C   0  0  0  0  0  0  0  0  0  0  0  0
    2.2599  -10.7270   13.3680 C   0  0  0  0  0  0  0  0  0  0  0  0
    2.2075   -7.7466   20.1925 C   0  0  0  0  0  0  0  0  0  0  0  0
    6.1511  -12.0245   19.5377 C   0  0  0  0  0  0  0  0  0  0  0  0
    2.2221   -6.8602   19.1686 C   0  0  0  0  0  0  0  0  0  0  0  0
    2.3212  -11.6766   15.5951 N   0  0  0  0  0  0  0  0  0  0  0  0
    2.7656   -8.6226   17.7797 N   0  0  0  0  0  0  0  0  0  0  0  0
    4.2837   -8.9935   20.1864 O   0  0  0  0  0  0  0  0  0  0  0  0
    2.8622   -8.9336   20.2136 C   0  0  0  0  0  0  0  0  0  0  0  0
    2.9382   -9.4674   16.7059 C   0  0  0  0  0  0  0  0  0  0  0  0
    4.2892  -11.8492   13.8936 C   0  0  0  0  0  0  0  0  0  0  0  0
    1.1185  -11.5882   13.0701 C   0  0  0  0  0  0  0  0  0  0  0  0
    5.6134  -10.7748   19.3769 C   0  0  0  0  0  0  0  0  0  0  0  0
    4.3021  -10.1362   22.7154 F   0  0  0  0  0  0  0  0  0  0  0  0
    1.3296  -11.3253   17.4674 C   0  0  0  0  0  0  0  0  0  0  0  0
    4.4615  -10.9790   12.6199 C   0  0  0  0  0  0  0  0  0  0  0  0
    1.7219  -12.7708   15.8586 N   0  0  0  0  0  0  0  0  0  0  0  0
    5.7247  -10.1382   18.2232 F   0  0  0  0  0  0  0  0  0  0  0  0
    2.4944   -9.3928   18.9441 C   0  0  0  0  0  0  0  0  0  0  0  0
    3.0153  -11.3870   14.4165 N   0  0  0  0  0  0  0  0  0  0  0  0
    6.6524  -12.6510   18.5109 F   0  0  0  0  0  0  0  0  0  0  0  0
    4.9293  -10.1659   20.4184 C   0  0  0  0  0  0  0  0  0  0  0  0
    6.1364  -12.6309   20.7783 C   0  0  0  0  0  0  0  0  0  0  0  0
    1.0767  -12.5795   16.9857 C   0  0  0  0  0  0  0  0  0  0  0  0
  1  3  1  0
  1 20  1  0
  1 28  2  0
  2  8  1  0
  2 22  1  0
  3 29  2  0
  4  7  1  0
  5 12  1  0
  5 16  1  0
  5 21  2  0
  6 16  2  0
  7 11  1  0
  7 13  1  0
  8 18  1  0
  8 26  1  0
  9 11  2  0
  9 15  1  0
 10 19  2  0
 10 27  1  0
 10 29  1  0
 12 23  1  0
 12 26  1  0
 13 16  1  0
 13 25  1  0
 14 15  1  0
 14 28  1  0
 15 25  1  0
 17 22  1  0
 17 26  1  0
 19 24  1  0
 19 28  1  0
 21 30  1  0
 23 30  2  0
M  END
$$$$
