
     RDKit          3D

 31 34  0  0  0  0  0  0  0  0999 V2000
    3.9933  -10.3979   22.2602 C   0  0  0  0  0  0  0  0  0  0  0  0
    0.9215   -9.9381   16.4227 F   0  0  0  0  0  0  0  0  0  0  0  0
    4.3945  -10.6781   17.0086 O   0  0  0  0  0  0  0  0  0  0  0  0
    5.6500  -11.1130   20.6490 C   0  0  0  0  0  0  0  0  0  0  0  0
    3.2481   -8.9191   18.8703 C   0  0  0  0  0  0  0  0  0  0  0  0
    4.1771  -11.0256   12.7898 C   0  0  0  0  0  0  0  0  0  0  0  0
    1.1610  -11.1816   17.9665 F   0  0  0  0  0  0  0  0  0  0  0  0
    1.8601  -11.9197   15.7178 C   0  0  0  0  0  0  0  0  0  0  0  0
    2.6304   -7.7780   19.2174 C   0  0  0  0  0  0  0  0  0  0  0  0
    0.4213  -12.2436   15.7410 F   0  0  0  0  0  0  0  0  0  0  0  0
    3.9445   -8.2496   15.5567 O   0  0  0  0  0  0  0  0  0  0  0  0
    3.7782   -9.9869   19.9001 C   0  0  0  0  0  0  0  0  0  0  0  0
    3.0742   -6.8161   16.9499 N   0  0  0  0  0  0  0  0  0  0  0  0
    3.4790   -8.0567   16.6099 C   0  0  0  0  0  0  0  0  0  0  0  0
    2.5514   -6.8263   18.2036 C   0  0  0  0  0  0  0  0  0  0  0  0
    3.3732   -9.0175   17.4654 C   0  0  0  0  0  0  0  0  0  0  0  0
    3.3011  -13.2845   16.6104 F   0  0  0  0  0  0  0  0  0  0  0  0
    5.8950  -11.9178   22.6844 N   0  0  0  0  0  0  0  0  0  0  0  0
    3.7470  -11.5479   13.9237 C   0  0  0  0  0  0  0  0  0  0  0  0
    5.1394  -11.1326   21.9152 C   0  0  0  0  0  0  0  0  0  0  0  0
    3.2531  -10.3364   11.9043 C   0  0  0  0  0  0  0  0  0  0  0  0
    1.7330  -10.8785   16.8524 C   0  0  0  0  0  0  0  0  0  0  0  0
    1.9192  -10.1963   12.3273 C   0  0  0  0  0  0  0  0  0  0  0  0
    3.3302   -9.7286   21.2756 C   0  0  0  0  0  0  0  0  0  0  0  0
    6.8833  -12.4003   21.9800 C   0  0  0  0  0  0  0  0  0  0  0  0
    1.5066  -10.7163   13.5608 C   0  0  0  0  0  0  0  0  0  0  0  0
    5.1683  -10.3961   19.5814 C   0  0  0  0  0  0  0  0  0  0  0  0
    3.1461  -10.3297   17.2136 C   0  0  0  0  0  0  0  0  0  0  0  0
    2.0147  -13.1069   16.2175 C   0  0  0  0  0  0  0  0  0  0  0  0
    6.7997  -11.9644   20.7222 C   0  0  0  0  0  0  0  0  0  0  0  0
    2.4459  -11.4019   14.4138 C   0  0  0  0  0  0  0  0  0  0  0  0
  1 20  1  0
  1 24  2  0
  2 22  1  0
  3 28  1  0
  4 20  1  0
  4 27  1  0
  4 30  2  0
  5  9  1  0
  5 12  1  0
  5 16  2  0
  6 19  1  0
  6 21  2  0
  7 22  1  0
  8 10  1  0
  8 22  1  0
  8 29  1  0
  8 31  1  0
  9 15  2  0
 11 14  2  0
 12 24  1  0
 12 27  1  0
 13 14  1  0
 13 15  1  0
 14 16  1  0
 16 28  1  0
 17 29  1  0
 18 20  1  0
 18 25  2  0
 19 31  2  0
 21 23  1  0
 22 28  1  0
 23 26  2  0
 25 30  1  0
 26 31  1  0
M  END
$$$$
