
     RDKit          3D

 23 23  0  0  0  0  0  0  0  0999 V2000
    5.4673    4.7133   26.9553 C   0  0  0  0  0  0  0  0  0  0  0  0
    6.8727    2.9062   26.1141 C   0  0  0  0  0  0  0  0  0  0  0  0
    2.1629    6.2344   25.8292 C   0  0  0  0  0  0  0  0  0  0  0  0
   12.6712    2.1104   22.9214 C   0  0  0  0  0  0  0  0  0  0  0  0
   12.8299    3.6029   23.0013 C   0  0  0  0  0  0  0  0  0  0  0  0
   13.9185   -0.1401   23.6816 N   0  0  0  0  0  0  0  0  0  0  0  0
    8.0585    3.5732   25.5547 N   0  0  0  0  0  0  0  0  0  0  0  0
    4.2774    5.5203   26.9262 C   0  0  0  0  0  0  0  0  0  0  0  0
    4.6152    3.4539   24.9675 C   0  0  0  0  0  0  0  0  0  0  0  0
    9.2999    3.0463   26.0383 C   0  0  0  0  0  0  0  0  0  0  0  0
   11.3160    2.5150   24.8466 N   0  0  0  0  0  0  0  0  0  0  0  0
   10.0481    2.3072   25.0902 C   0  0  0  0  0  0  0  0  0  0  0  0
    9.4262    1.4218   24.4531 O   0  0  0  0  0  0  0  0  0  0  0  0
   12.6524    1.5628   21.5157 C   0  0  0  0  0  0  0  0  0  0  0  0
   12.0123    1.5562   24.1082 C   0  0  0  0  0  0  0  0  0  0  0  0
    5.5753    3.7113   26.0281 C   0  0  0  0  0  0  0  0  0  0  0  0
    1.8096    6.7081   24.5609 O   0  0  0  0  0  0  0  0  0  0  0  0
    3.3079    5.3107   25.9111 C   0  0  0  0  0  0  0  0  0  0  0  0
    3.4778    4.2738   24.9923 C   0  0  0  0  0  0  0  0  0  0  0  0
    6.9332    1.7651   26.4054 O   0  0  0  0  0  0  0  0  0  0  0  0
   13.9968    1.3680   23.4356 C   0  0  0  0  0  0  0  0  0  0  0  0
    0.4928    6.3512   24.1009 C   0  0  0  0  0  0  0  0  0  0  0  0
    1.5792    6.6231   26.7307 O   0  0  0  0  0  0  0  0  0  0  0  0
  1  8  2  0
  1 16  1  0
  2  7  1  0
  2 16  1  0
  2 20  2  0
  3 17  1  0
  3 18  1  0
  3 23  2  0
  4  5  1  0
  4 14  1  0
  4 15  1  0
  4 21  1  0
  6 21  1  0
  7 10  1  0
  8 18  1  0
  9 16  2  0
  9 19  1  0
 10 12  1  0
 11 12  1  0
 11 15  1  0
 12 13  2  0
 17 22  1  0
 18 19  2  0
M  END
$$$$
