
     RDKit          3D

 19 19  0  0  0  0  0  0  0  0999 V2000
   14.0678    0.4820   23.4112 O   0  0  0  0  0  0  0  0  0  0  0  0
   10.0906    1.2472   25.2055 C   0  0  0  0  0  0  0  0  0  0  0  0
    1.8611    6.5182   25.5058 C   0  0  0  0  0  0  0  0  0  0  0  0
    6.9941    3.7690   25.6042 C   0  0  0  0  0  0  0  0  0  0  0  0
   12.7866    1.4891   21.3574 O   0  0  0  0  0  0  0  0  0  0  0  0
    8.8415    2.3009   24.6579 C   0  0  0  0  0  0  0  0  0  0  0  0
    7.5074    2.3916   25.4386 C   0  0  0  0  0  0  0  0  0  0  0  0
    4.9649    5.2258   24.7938 C   0  0  0  0  0  0  0  0  0  0  0  0
    0.6227    6.9908   23.4250 N   0  0  0  0  0  0  0  0  0  0  0  0
   13.0061    1.3851   22.8706 P   0  0  0  0  0  0  0  0  0  0  0  0
    2.9215    6.1836   24.7301 C   0  0  0  0  0  0  0  0  0  0  0  0
   11.3565    1.8227   24.8441 C   0  0  0  0  0  0  0  0  0  0  0  0
    1.9089    6.3730   26.9761 C   0  0  0  0  0  0  0  0  0  0  0  0
    0.6192    7.0002   24.8967 C   0  0  0  0  0  0  0  0  0  0  0  0
   11.4703    1.1672   23.5648 C   0  0  0  0  0  0  0  0  0  0  0  0
    9.0438    0.8509   24.2876 C   0  0  0  0  0  0  0  0  0  0  0  0
   13.2806    2.7710   23.2049 O   0  0  0  0  0  0  0  0  0  0  0  0
    3.9406    5.7022   25.3767 O   0  0  0  0  0  0  0  0  0  0  0  0
    5.4732    3.9658   25.6117 C   0  0  0  0  0  0  0  0  0  0  0  0
  1 10  1  0
  2  6  1  0
  2 12  1  0
  2 16  1  0
  3 11  2  3
  3 13  1  0
  3 14  1  0
  4  7  1  0
  4 19  1  0
  5 10  2  0
  6  7  1  0
  6 16  1  0
  8 18  1  0
  8 19  1  0
  9 14  1  0
 10 15  1  0
 10 17  1  0
 11 18  1  0
 12 15  1  0
M  END
$$$$
