
     RDKit          3D

 21 23  0  0  0  0  0  0  0  0999 V2000
  -12.2489    3.4821  -21.4128 N   0  0  0  0  0  0  0  0  0  0  0  0
  -11.1250    5.0976  -20.4889 N   0  0  0  0  0  0  0  0  0  0  0  0
   -8.9912    4.0389  -20.6624 O   0  0  0  0  0  0  0  0  0  0  0  0
   -9.8961    4.9995  -22.8196 O   0  0  0  0  0  0  0  0  0  0  0  0
  -15.9097    2.3698  -22.8861 S   0  0  0  0  0  0  0  0  0  0  0  0
  -13.5406    3.1008  -21.7104 C   0  0  0  0  0  0  0  0  0  0  0  0
  -14.3327    2.1656  -22.3116 C   0  0  0  0  0  0  0  0  0  0  0  0
  -15.9162   -2.0061  -23.9709 N   0  0  0  0  0  0  0  0  0  0  0  0
  -16.0365    0.6860  -23.3663 C   0  0  0  0  0  0  0  0  0  0  0  0
  -13.1762    5.1827  -20.5095 C   0  0  0  0  0  0  0  0  0  0  0  0
  -17.0523   -1.3471  -24.2359 C   0  0  0  0  0  0  0  0  0  0  0  0
  -17.1478   -0.0003  -23.9515 C   0  0  0  0  0  0  0  0  0  0  0  0
   -9.7241    5.2448  -21.3321 P   0  0  0  0  0  0  0  0  0  0  0  0
  -13.9123    4.1577  -21.1234 C   0  0  0  0  0  0  0  0  0  0  0  0
   -8.9379    6.5918  -20.9966 O   0  0  0  0  0  0  0  0  0  0  0  0
  -18.3373    0.6103  -24.2161 N   0  0  0  0  0  0  0  0  0  0  0  0
  -12.1295    4.6207  -20.8087 C   0  0  0  0  0  0  0  0  0  0  0  0
  -13.9068    0.7920  -22.5143 N   0  0  0  0  0  0  0  0  0  0  0  0
  -13.7413   -2.2198  -23.2048 N   0  0  0  0  0  0  0  0  0  0  0  0
  -14.8692   -1.3620  -23.4446 C   0  0  0  0  0  0  0  0  0  0  0  0
  -14.8734    0.0113  -23.0863 C   0  0  0  0  0  0  0  0  0  0  0  0
  1  6  1  0
  1 17  1  0
  2 13  1  0
  2 17  1  0
  3 13  2  0
  4 13  1  0
  5  7  1  0
  5  9  1  0
  6  7  1  0
  6 14  2  0
  7 18  2  0
  8 11  2  0
  8 20  1  0
  9 12  2  0
  9 21  1  0
 10 14  1  0
 10 17  2  0
 11 12  1  0
 12 16  1  0
 13 15  1  0
 18 21  1  0
 19 20  1  0
 20 21  2  0
M  END
