
     RDKit          3D

 30 34  0  0  0  0  0  0  0  0999 V2000
    3.3437    0.3942    0.3753 C   0  0  0  0  0  0  0  0  0  0  0  0
    0.2945   -2.9156   -0.4961 N   0  0  0  0  0  0  0  0  0  0  0  0
    5.6947    0.4980   -0.2241 C   0  0  0  0  0  0  0  0  0  0  0  0
   -4.3296    1.1379    1.1415 N   0  0  0  0  0  0  0  0  0  0  0  0
    5.7506   -0.8931   -0.1872 C   0  0  0  0  0  0  0  0  0  0  0  0
   -2.5455    3.1906    0.2681 C   0  0  0  0  0  0  0  0  0  0  0  0
   -5.3703    0.2154    1.4939 C   0  0  0  0  0  0  0  0  0  0  0  0
    2.2484   -1.9061    0.6160 C   0  0  0  0  0  0  0  0  0  0  0  0
   -0.2399    3.8721   -0.0102 C   0  0  0  0  0  0  0  0  0  0  0  0
   -2.9391   -3.3232   -0.5392 C   0  0  0  0  0  0  0  0  0  0  0  0
   -4.0857   -1.5698    0.6140 C   0  0  0  0  0  0  0  0  0  0  0  0
    2.1093    1.0647    0.6875 N   0  0  0  0  0  0  0  0  0  0  0  0
    3.4446   -1.0181    0.4017 C   0  0  0  0  0  0  0  0  0  0  0  0
   -0.7746    1.5378    0.3495 C   0  0  0  0  0  0  0  0  0  0  0  0
    1.6477    2.2165   -0.0923 C   0  0  0  0  0  0  0  0  0  0  0  0
    4.6366   -1.6102    0.1106 N   0  0  0  0  0  0  0  0  0  0  0  0
   -2.1101    5.8619   -0.1162 Cl  0  0  0  0  0  0  0  0  0  0  0  0
   -5.2539   -1.0513    1.2464 N   0  0  0  0  0  0  0  0  0  0  0  0
    0.1873    2.5441    0.1387 C   0  0  0  0  0  0  0  0  0  0  0  0
   -0.4535   -3.1301   -2.7007 O   0  0  0  0  0  0  0  0  0  0  0  0
   -2.8780   -0.6816    0.3859 C   0  0  0  0  0  0  0  0  0  0  0  0
   -3.1882    0.7891    0.6150 C   0  0  0  0  0  0  0  0  0  0  0  0
   -2.3636   -0.9915   -1.0327 C   0  0  0  0  0  0  0  0  0  0  0  0
   -2.0734   -2.4694   -1.1102 C   0  0  0  0  0  0  0  0  0  0  0  0
    1.5481   -2.1975   -0.7169 C   0  0  0  0  0  0  0  0  0  0  0  0
   -0.7296   -2.9032   -1.4930 C   0  0  0  0  0  0  0  0  0  0  0  0
   -2.1526    1.8459    0.4012 C   0  0  0  0  0  0  0  0  0  0  0  0
   -1.5957    4.1945    0.0675 C   0  0  0  0  0  0  0  0  0  0  0  0
   -4.0612   -2.8081    0.2035 N   0  0  0  0  0  0  0  0  0  0  0  0
    4.4894    1.1409    0.0539 C   0  0  0  0  0  0  0  0  0  0  0  0
  1 12  1  0
  1 13  1  0
  1 30  2  0
  2 25  1  0
  2 26  1  0
  3  5  2  0
  3 30  1  0
  4  7  1  0
  4 22  2  0
  5 16  1  0
  6 27  2  0
  6 28  1  0
  7 18  2  0
  8 13  1  0
  8 25  1  0
  9 19  1  0
  9 28  2  0
 10 24  2  0
 10 29  1  0
 11 18  1  0
 11 21  1  0
 11 29  2  0
 12 15  1  0
 13 16  2  0
 14 19  2  0
 14 27  1  0
 15 19  1  0
 17 28  1  0
 20 26  2  0
 21 22  1  0
 21 23  1  0
 22 27  1  0
 23 24  1  0
 24 26  1  0
M  END
