
     RDKit          3D

 29 35  0  0  0  0  0  0  0  0999 V2000
   -2.9052    0.5615    0.5880 C   0  0  0  0  0  0  0  0  0  0  0  0
    3.6037    0.6532   -0.9348 C   0  0  1  0  0  0  0  0  0  0  0  0
    3.4354    2.1034   -0.5277 C   0  0  0  0  0  0  0  0  0  0  0  0
   -3.1422    4.5946    0.5849 Cl  0  0  0  0  0  0  0  0  0  0  0  0
   -1.0649   -1.0939    0.0375 C   0  0  0  0  0  0  0  0  0  0  0  0
   -1.5008   -3.4833   -0.1264 N   0  0  0  0  0  0  0  0  0  0  0  0
    3.6868   -0.1409    0.2857 C   0  0  2  0  0  0  0  0  0  0  0  0
   -2.5254    2.9576    0.4049 C   0  0  0  0  0  0  0  0  0  0  0  0
   -1.2184    2.7191   -0.0453 C   0  0  0  0  0  0  0  0  0  0  0  0
    2.7964    0.0567   -1.9261 O   0  0  0  0  0  0  0  0  0  0  0  0
   -3.7682   -0.5946    1.0372 C   0  0  1  0  0  0  0  0  0  0  0  0
    2.7118   -1.2811    0.0581 C   0  0  1  0  0  0  0  0  0  0  0  0
   -1.5716    0.3155    0.1656 C   0  0  0  0  0  0  0  0  0  0  0  0
    3.2029    2.1385    0.9174 N   0  0  0  0  0  0  0  0  0  0  0  0
   -5.4602   -1.6246   -0.1353 N   0  0  0  0  0  0  0  0  0  0  0  0
    0.3278   -1.3349   -0.2030 N   0  0  0  0  0  0  0  0  0  0  0  0
    1.3559   -1.1682    0.8084 C   0  0  0  0  0  0  0  0  0  0  0  0
   -0.7482    1.4078   -0.1620 C   0  0  0  0  0  0  0  0  0  0  0  0
   -5.1873   -0.5746    0.5666 C   0  0  0  0  0  0  0  0  0  0  0  0
   -4.3056   -2.3940   -0.2996 N   0  0  0  0  0  0  0  0  0  0  0  0
    3.6794    0.8568    1.4376 C   0  0  0  0  0  0  0  0  0  0  0  0
    2.3901   -1.1996   -1.4350 C   0  0  1  0  0  0  0  0  0  0  0  0
   -3.3388   -1.8416    0.3508 C   0  0  0  0  0  0  0  0  0  0  0  0
   -0.1428    4.0466   -0.4626 Cl  0  0  0  0  0  0  0  0  0  0  0  0
    0.2526   -1.3539   -2.5529 O   0  0  0  0  0  0  0  0  0  0  0  0
    4.7840   -0.0334   -0.6016 O   0  0  0  0  0  0  0  0  0  0  0  0
   -3.3576    1.8826    0.7289 C   0  0  0  0  0  0  0  0  0  0  0  0
   -1.9245   -2.1328    0.0979 C   0  0  0  0  0  0  0  0  0  0  0  0
    0.9199   -1.3137   -1.4849 C   0  0  0  0  0  0  0  0  0  0  0  0
  1 11  1  0
  1 13  2  0
  1 27  1  0
  2  3  1  1
  2  7  1  0
  2 10  1  0
  2 26  1  0
  3 14  1  0
  4  8  1  0
  5 13  1  0
  5 16  1  0
  5 28  2  0
  6 28  1  0
  7 12  1  0
  7 21  1  1
  7 26  1  0
  8  9  1  0
  8 27  2  0
  9 18  2  0
  9 24  1  0
 22 10  1  1
 11 19  1  6
 11 23  1  0
 12 17  1  1
 12 22  1  0
 13 18  1  0
 14 21  1  0
 15 19  2  0
 15 20  1  0
 16 17  1  0
 16 29  1  0
 20 23  2  0
 22 29  1  0
 23 28  1  0
 25 29  2  0
M  END
