
     RDKit          3D

 21 22  0  0  0  0  0  0  0  0999 V2000
   -3.4617   -0.1282   -0.9303 C   0  0  0  0  0  0  0  0  0  0  0  0
   -0.2364   -0.4164    0.2714 N   0  0  0  0  0  0  0  0  0  0  0  0
   -2.6993    2.0509   -2.2170 C   0  0  0  0  0  0  0  0  0  0  0  0
   -1.6026   -0.6718    0.6124 C   0  0  0  0  0  0  0  0  0  0  0  0
    0.2628    1.5064    2.0327 O   0  0  0  0  0  0  0  0  0  0  0  0
    2.3490    0.7542    0.5530 C   0  0  0  0  0  0  0  0  0  0  0  0
   -4.6998   -0.4013   -0.6848 N   0  0  0  0  0  0  0  0  0  0  0  0
    2.3198    1.7048   -0.4903 C   0  0  0  0  0  0  0  0  0  0  0  0
   -3.0491    1.0575   -1.6311 C   0  0  0  0  0  0  0  0  0  0  0  0
   -4.7809   -1.6282   -0.0206 N   0  0  0  0  0  0  0  0  0  0  0  0
    4.7509    0.5242    0.2514 C   0  0  0  0  0  0  0  0  0  0  0  0
    4.7172    1.4651   -0.7789 C   0  0  0  0  0  0  0  0  0  0  0  0
    0.8720    0.2853    1.4025 S   0  0  0  0  0  0  0  0  0  0  0  0
    1.1823   -0.7219    2.4744 O   0  0  0  0  0  0  0  0  0  0  0  0
   -2.0257   -0.4060    1.7714 O   0  0  0  0  0  0  0  0  0  0  0  0
    3.5736    0.1691    0.9148 C   0  0  0  0  0  0  0  0  0  0  0  0
    3.5058    2.0533   -1.1486 C   0  0  0  0  0  0  0  0  0  0  0  0
   -2.5458   -1.1986   -0.4346 C   0  0  1  0  0  0  0  0  0  0  0  0
   -3.5904   -2.1013    0.1357 C   0  0  0  0  0  0  0  0  0  0  0  0
   -3.3320   -3.3549    0.7644 N   0  0  0  0  0  0  0  0  0  0  0  0
    0.8239    2.4794   -1.0026 Cl  0  0  0  0  0  0  0  0  0  0  0  0
  1  7  2  0
  1  9  1  0
  1 18  1  0
  2  4  1  0
  2 13  1  0
  3  9  3  0
  4 15  2  0
 18  4  1  1
  5 13  2  0
  6  8  1  0
  6 13  1  0
  6 16  2  0
  7 10  1  0
  8 17  2  0
  8 21  1  0
 10 19  2  0
 11 12  2  0
 11 16  1  0
 12 17  1  0
 13 14  2  0
 18 19  1  0
 19 20  1  0
M  END
