
     RDKit          3D

 20 20  0  0  0  0  0  0  0  0999 V2000
   -2.2818    0.3053   -0.5852 C   0  0  0  0  0  0  0  0  0  0  0  0
   -1.0336    0.9731   -0.8163 N   0  0  0  0  0  0  0  0  0  0  0  0
   -4.7109   -1.0267   -0.2617 C   0  0  0  0  0  0  0  0  0  0  0  0
   -3.5583   -1.7204   -0.4418 N   0  0  0  0  0  0  0  0  0  0  0  0
    2.5375    0.9820    0.5912 C   0  0  0  0  0  0  0  0  0  0  0  0
   -5.9407   -1.7308   -0.0866 N   0  0  0  0  0  0  0  0  0  0  0  0
    0.0790    0.7329    0.0082 N   0  0  0  0  0  0  0  0  0  0  0  0
   -4.4771    3.1457   -0.6198 O   0  0  0  0  0  0  0  0  0  0  0  0
    1.5231    2.0172   -1.3064 O   0  0  0  0  0  0  0  0  0  0  0  0
   -3.4497    2.4910   -0.3465 N   0  0  0  0  0  0  0  0  0  0  0  0
    5.5063    0.0309    1.1210 C   0  0  0  0  0  0  0  0  0  0  0  0
   -1.1476   -1.9630   -0.8494 C   0  0  0  0  0  0  0  0  0  0  0  0
    4.2400   -0.8327    1.1837 C   0  0  0  0  0  0  0  0  0  0  0  0
   -4.6863    0.3697   -0.2517 C   0  0  0  0  0  0  0  0  0  0  0  0
   -2.3578   -1.1062   -0.6166 C   0  0  0  0  0  0  0  0  0  0  0  0
    1.3628    1.2960   -0.2849 C   0  0  0  0  0  0  0  0  0  0  0  0
    6.0739   -0.0068   -0.1612 O   0  0  0  0  0  0  0  0  0  0  0  0
    3.1311   -0.3827    0.2177 C   0  0  0  0  0  0  0  0  0  0  0  0
   -3.4691    1.0519   -0.4059 C   0  0  0  0  0  0  0  0  0  0  0  0
   -2.3523    3.1600    0.1449 O   0  0  0  0  0  0  0  0  0  0  0  0
  1  2  1  0
  1 15  1  0
  1 19  2  0
  2  7  1  0
  3  4  1  0
  3  6  1  0
  3 14  2  0
  4 15  2  0
  5 16  1  0
  5 18  1  0
  7 16  1  0
  8 10  2  0
  9 16  2  0
 10 19  1  0
 10 20  1  0
 11 13  1  0
 11 17  1  0
 12 15  1  0
 13 18  1  0
 14 19  1  0
M  CHG  2  10   1  20  -1
M  END
