
     RDKit          3D

 14 15  0  0  0  0  0  0  0  0999 V2000
    4.1098   25.5529   15.0734 C   0  0  0  0  0  0  0  0  0  0  0  0
    4.6858   23.6568   13.5169 C   0  0  0  0  0  0  0  0  0  0  0  0
    3.6589   22.8160   10.0613 C   0  0  0  0  0  0  0  0  0  0  0  0
    3.2078   23.4613    8.9137 C   0  0  0  0  0  0  0  0  0  0  0  0
    3.0958   26.6187   15.4923 C   0  0  0  0  0  0  0  0  0  0  0  0
    4.2064   22.8314   12.4175 N   0  0  0  0  0  0  0  0  0  0  0  0
    2.8818   24.8112    8.9367 C   0  0  0  0  0  0  0  0  0  0  0  0
    3.0944   22.7238    7.7712 O   0  0  0  0  0  0  0  0  0  0  0  0
    3.6791   24.7711   13.8193 C   0  0  2  0  0  0  0  0  0  0  0  0
    3.4400   24.8765   11.3015 C   0  0  0  0  0  0  0  0  0  0  0  0
    3.5073   27.2703   16.7309 N   0  0  0  0  0  0  0  0  0  0  0  0
    3.8164   23.5227   11.2594 C   0  0  0  0  0  0  0  0  0  0  0  0
    3.5555   25.6695   12.5800 C   0  0  0  0  0  0  0  0  0  0  0  0
    2.9962   25.5180   10.1331 C   0  0  0  0  0  0  0  0  0  0  0  0
  1  5  1  0
  9  1  1  1
  2  6  1  0
  2  9  1  0
  3  4  2  0
  3 12  1  0
  4  7  1  0
  4  8  1  0
  5 11  1  0
  6 12  1  0
  7 14  2  0
  9 13  1  0
 10 12  2  0
 10 13  1  0
 10 14  1  0
M  END
$$$$
