
     RDKit          3D

 19 19  0  0  0  0  0  0  0  0999 V2000
   34.1762  -33.6733    8.9437 N   0  0  0  0  0  0  0  0  0  0  0  0
   34.2009  -40.3034    5.3900 O   0  0  0  0  0  0  0  0  0  0  0  0
   34.6288  -34.6247    5.3433 O   0  0  0  0  0  0  0  0  0  0  0  0
   37.0458  -35.6847   11.2781 C   0  0  0  0  0  0  0  0  0  0  0  0
   37.3316  -37.2407   13.1799 C   0  0  0  0  0  0  0  0  0  0  0  0
   34.2595  -38.0838    6.1233 C   0  0  0  0  0  0  0  0  0  0  0  0
   34.5246  -39.5369    6.2930 C   0  0  0  0  0  0  0  0  0  0  0  0
   35.4308  -36.0852    7.1144 C   0  0  0  0  0  0  0  0  0  0  0  0
   35.0168  -35.6309   10.0515 C   0  0  0  0  0  0  0  0  0  0  0  0
   36.2767  -33.8602    6.7186 O   0  0  0  0  0  0  0  0  0  0  0  0
   35.5303  -37.2604    6.1626 C   0  0  0  0  0  0  0  0  0  0  0  0
   34.0949  -36.0049    7.8151 C   0  0  0  0  0  0  0  0  0  0  0  0
   35.0810  -39.9704    7.3724 O   0  0  0  0  0  0  0  0  0  0  0  0
   36.5066  -36.6644   12.1158 C   0  0  0  0  0  0  0  0  0  0  0  0
   35.4456  -34.7745    6.3129 C   0  0  0  0  0  0  0  0  0  0  0  0
   36.2938  -35.1449   10.2458 C   0  0  0  0  0  0  0  0  0  0  0  0
   34.0975  -35.1066    9.1173 C   0  0  0  0  0  0  0  0  0  0  0  0
   34.4603  -36.5750   10.9236 C   0  0  0  0  0  0  0  0  0  0  0  0
   35.2036  -37.1157   11.9557 C   0  0  0  0  0  0  0  0  0  0  0  0
  1 17  1  0
  2  7  2  0
  3 15  2  0
  4 14  1  0
  4 16  2  0
  5 14  1  0
  6  7  1  0
  6 11  1  0
  7 13  1  0
  8 11  1  0
  8 12  1  0
  8 15  1  0
  9 16  1  0
  9 17  1  0
  9 18  2  0
 10 15  1  0
 12 17  1  0
 14 19  2  0
 18 19  1  0
M  END
$$$$
