
     RDKit          3D

 21 22  0  0  0  0  0  0  0  0999 V2000
   34.2634  -36.5806   11.4013 C   0  0  0  0  0  0  0  0  0  0  0  0
   34.3305  -40.8941    5.5225 O   0  0  0  0  0  0  0  0  0  0  0  0
   34.4895  -35.1474   11.8621 C   0  0  0  0  0  0  0  0  0  0  0  0
   36.7056  -36.8148   12.4806 C   0  0  0  0  0  0  0  0  0  0  0  0
   34.6666  -34.3366   10.5513 C   0  0  0  0  0  0  0  0  0  0  0  0
   35.3339  -35.2971    7.1947 C   0  0  0  0  0  0  0  0  0  0  0  0
   35.2297  -37.4426   12.2135 C   0  0  0  0  0  0  0  0  0  0  0  0
   35.5724  -35.2109    9.6817 C   0  0  0  0  0  0  0  0  0  0  0  0
   35.3003  -41.6495    7.4860 O   0  0  0  0  0  0  0  0  0  0  0  0
   33.5793  -38.2011    6.1375 C   0  0  0  0  0  0  0  0  0  0  0  0
   34.6426  -36.5002    9.8706 C   0  0  0  0  0  0  0  0  0  0  0  0
   37.3240  -36.5455   11.0983 C   0  0  0  0  0  0  0  0  0  0  0  0
   35.5548  -34.7094    8.3187 N   0  0  0  0  0  0  0  0  0  0  0  0
   34.1536  -36.1349    7.2536 N   0  0  0  0  0  0  0  0  0  0  0  0
   33.8207  -36.1733    4.9285 O   0  0  0  0  0  0  0  0  0  0  0  0
   34.4999  -39.0442    7.0314 C   0  0  0  0  0  0  0  0  0  0  0  0
   33.6548  -36.6688    6.2210 C   0  0  0  0  0  0  0  0  0  0  0  0
   35.9189  -35.0596    6.1911 O   0  0  0  0  0  0  0  0  0  0  0  0
   36.1580  -33.5136    8.3766 O   0  0  0  0  0  0  0  0  0  0  0  0
   34.6870  -40.5851    6.5946 C   0  0  0  0  0  0  0  0  0  0  0  0
   36.8142  -35.2031   10.5404 C   0  0  0  0  0  0  0  0  0  0  0  0
  1  3  1  0
  1  7  1  0
  1 11  1  0
  2 20  1  0
  3  5  1  0
  4  7  1  0
  4 12  1  0
  5  8  1  0
  6 13  1  0
  6 14  1  0
  6 18  2  0
  8 11  1  0
  8 13  1  0
  8 21  1  0
  9 20  2  0
 10 16  1  0
 10 17  1  0
 12 21  1  0
 13 19  1  0
 14 17  1  0
 15 17  1  0
 16 20  1  0
M  END
$$$$
