
     RDKit          3D

 20 21  0  0  0  0  0  0  0  0999 V2000
   36.4869  -36.9338   12.4849 C   0  0  0  0  0  0  0  0  0  0  0  0
   35.8999  -36.1221   11.5987 C   0  0  0  0  0  0  0  0  0  0  0  0
   33.9191  -34.7640    5.5028 O   0  0  0  0  0  0  0  0  0  0  0  0
   34.0701  -35.9238    8.3289 N   0  0  0  0  0  0  0  0  0  0  0  0
   35.9072  -40.6886    6.4080 C   0  0  0  0  0  0  0  0  0  0  0  0
   34.7719  -35.6983    9.5980 C   0  0  0  0  0  0  0  0  0  0  0  0
   36.0182  -34.4622    6.0823 O   0  0  0  0  0  0  0  0  0  0  0  0
   34.7037  -34.3458   10.0068 C   0  0  0  0  0  0  0  0  0  0  0  0
   35.3640  -36.6157   10.4366 C   0  0  0  0  0  0  0  0  0  0  0  0
   34.1276  -37.3293    6.3561 C   0  0  0  0  0  0  0  0  0  0  0  0
   35.6330  -41.8108    5.4764 C   0  0  0  0  0  0  0  0  0  0  0  0
   35.0066  -39.5674    6.7520 C   0  0  0  0  0  0  0  0  0  0  0  0
   35.8730  -34.8292   11.9682 C   0  0  0  0  0  0  0  0  0  0  0  0
   35.1846  -38.3307    5.9122 C   0  0  0  0  0  0  0  0  0  0  0  0
   36.9072  -37.5655   13.2976 N   0  0  0  0  0  0  0  0  0  0  0  0
   34.0923  -33.3708    9.2072 O   0  0  0  0  0  0  0  0  0  0  0  0
   34.9196  -35.0596    6.1648 C   0  0  0  0  0  0  0  0  0  0  0  0
   35.6202  -42.0604    6.9857 C   0  0  0  0  0  0  0  0  0  0  0  0
   35.2748  -33.9306   11.1652 C   0  0  0  0  0  0  0  0  0  0  0  0
   34.8692  -36.2563    7.1258 C   0  0  0  0  0  0  0  0  0  0  0  0
  1  2  1  0
  1 15  3  0
  2  9  2  0
  2 13  1  0
  3 17  2  0
  4  6  1  0
  4 20  1  0
  5 11  1  0
  5 12  1  0
  5 18  1  0
  6  8  2  0
  6  9  1  0
  7 17  1  0
  8 16  1  0
  8 19  1  0
 10 14  1  0
 10 20  1  0
 11 18  1  0
 12 14  1  0
 13 19  2  0
 17 20  1  0
M  END
$$$$
