
     RDKit          3D

 21 22  0  0  0  0  0  0  0  0999 V2000
   34.4006  -35.5760    8.7636 N   0  0  0  0  0  0  0  0  0  0  0  0
   34.3231  -36.5669    7.7824 C   0  0  0  0  0  0  0  0  0  0  0  0
   35.4969  -36.9483   10.4120 C   0  0  0  0  0  0  0  0  0  0  0  0
   34.2311  -38.5414    5.8883 C   0  0  0  0  0  0  0  0  0  0  0  0
   35.8321  -34.1949    6.6689 O   0  0  0  0  0  0  0  0  0  0  0  0
   33.9909  -38.8638    7.1904 C   0  0  0  0  0  0  0  0  0  0  0  0
   37.4253  -36.0620   13.3773 C   0  0  0  0  0  0  0  0  0  0  0  0
   35.4335  -34.5998   10.6832 C   0  0  0  0  0  0  0  0  0  0  0  0
   34.9008  -34.8710    6.0432 C   0  0  0  0  0  0  0  0  0  0  0  0
   34.5647  -36.2765    6.4614 C   0  0  0  0  0  0  0  0  0  0  0  0
   34.0454  -37.8605    8.1361 C   0  0  0  0  0  0  0  0  0  0  0  0
   33.7165  -40.1559    7.5607 O   0  0  0  0  0  0  0  0  0  0  0  0
   35.0645  -35.7317    9.9050 C   0  0  0  0  0  0  0  0  0  0  0  0
   34.3882  -34.3597    5.0604 O   0  0  0  0  0  0  0  0  0  0  0  0
   36.2547  -37.0819   11.5318 C   0  0  0  0  0  0  0  0  0  0  0  0
   34.5251  -37.2540    5.5015 C   0  0  0  0  0  0  0  0  0  0  0  0
   36.6258  -36.0216   12.1583 C   0  0  0  0  0  0  0  0  0  0  0  0
   34.7820  -41.1330    7.6201 C   0  0  0  0  0  0  0  0  0  0  0  0
   34.1467  -39.8101    4.6655 Cl  0  0  0  0  0  0  0  0  0  0  0  0
   35.1150  -33.3277   10.2922 N   0  0  0  0  0  0  0  0  0  0  0  0
   36.2352  -34.7801   11.7872 N   0  0  0  0  0  0  0  0  0  0  0  0
  1  2  1  0
  1 13  1  0
  2 10  4  0
  2 11  4  0
  3 13  4  0
  3 15  4  0
  4  6  4  0
  4 16  4  0
  4 19  1  0
  5  9  2  0
  6 11  4  0
  6 12  1  0
  7 17  1  0
  8 13  4  0
  8 20  1  0
  8 21  4  0
  9 10  1  0
  9 14  1  0
 10 16  4  0
 12 18  1  0
 15 17  4  0
 17 21  4  0
M  END
$$$$
