
     RDKit          3D

 25 27  0  0  0  0  0  0  0  0999 V2000
    1.0054    0.5079   -1.8728 O   0  0  0  0  0  0  0  0  0  0  0  0
   -3.1185    0.0259   -0.7616 C   0  0  0  0  0  0  0  0  0  0  0  0
    1.1401   -0.6254    0.8222 C   0  0  0  0  0  0  0  0  0  0  0  0
    2.2360    0.1353   -1.3068 C   0  0  2  0  0  0  0  0  0  0  0  0
   -0.2498   -0.7933    0.7239 C   0  0  0  0  0  0  0  0  0  0  0  0
    0.8462    0.4190    2.9912 C   0  0  0  0  0  0  0  0  0  0  0  0
    4.6120    2.0671   -2.2413 O   0  0  0  0  0  0  0  0  0  0  0  0
   -3.1405   -1.2422   -1.0321 N   0  0  0  0  0  0  0  0  0  0  0  0
   -3.2249    0.5533    0.6286 C   0  0  0  0  0  0  0  0  0  0  0  0
    4.6718    0.3826   -2.0809 P   0  0  0  0  0  0  0  0  0  0  0  0
   -1.1025   -0.3571    1.7557 C   0  0  0  0  0  0  0  0  0  0  0  0
    5.6201   -0.1829   -3.1136 O   0  0  0  0  0  0  0  0  0  0  0  0
   -2.2419    2.7513    1.4910 O   0  0  0  0  0  0  0  0  0  0  0  0
   -2.5181    1.8652    0.4537 C   0  0  0  0  0  0  0  0  0  0  0  0
   -0.5367    0.2517    2.8903 C   0  0  0  0  0  0  0  0  0  0  0  0
   -2.6161   -0.4583    1.6330 C   0  0  2  0  0  0  0  0  0  0  0  0
   -2.5983    0.9976   -1.6531 N   0  0  0  0  0  0  0  0  0  0  0  0
    3.1152   -0.2696   -2.3417 O   0  0  0  0  0  0  0  0  0  0  0  0
    1.6823   -0.0101    1.9596 C   0  0  0  0  0  0  0  0  0  0  0  0
    2.0344   -1.0292   -0.3208 C   0  0  0  0  0  0  0  0  0  0  0  0
    5.2257   -0.0236   -0.5329 O   0  0  0  0  0  0  0  0  0  0  0  0
   -3.2598   -2.1929    0.0383 C   0  0  0  0  0  0  0  0  0  0  0  0
   -2.2111    2.0857   -0.8236 C   0  0  0  0  0  0  0  0  0  0  0  0
   -3.5849   -3.5501   -0.2511 N   0  0  0  0  0  0  0  0  0  0  0  0
   -3.0197   -1.8280    1.2694 N   0  0  0  0  0  0  0  0  0  0  0  0
  4  1  1  6
  2  8  2  0
  2  9  1  0
  2 17  1  0
  3  5  2  0
  3 19  1  0
  3 20  1  0
  4 18  1  0
  4 20  1  0
  5 11  1  0
  6 15  1  0
  6 19  2  0
  7 10  1  0
  8 22  1  0
  9 14  1  0
  9 16  1  0
 10 12  2  0
 10 18  1  0
 10 21  1  0
 11 15  2  0
 16 11  1  6
 13 14  1  0
 14 23  2  0
 16 25  1  0
 17 23  1  0
 22 24  1  0
 22 25  2  0
M  END
