
     RDKit          3D

 23 25  0  0  0  0  0  0  0  0999 V2000
    5.6535    0.4343    1.2033 O   0  0  0  0  0  0  0  0  0  0  0  0
   -3.9020    0.2967    1.1413 C   0  0  0  0  0  0  0  0  0  0  0  0
    0.4538    1.2584   -0.0431 C   0  0  0  0  0  0  0  0  0  0  0  0
   -4.6863    0.2139   -0.1411 C   0  0  0  0  0  0  0  0  0  0  0  0
   -2.6806    0.1744   -1.4752 C   0  0  0  0  0  0  0  0  0  0  0  0
    1.6026   -0.6100   -1.7777 C   0  0  0  0  0  0  0  0  0  0  0  0
    3.9081    0.3141   -1.3498 C   0  0  0  0  0  0  0  0  0  0  0  0
    1.8343    1.2625   -0.2608 C   0  0  0  0  0  0  0  0  0  0  0  0
    0.2220   -0.6144   -1.5620 C   0  0  0  0  0  0  0  0  0  0  0  0
   -6.1131    0.1896   -0.0861 N   0  0  0  0  0  0  0  0  0  0  0  0
    4.4738   -0.9162   -0.9505 O   0  0  0  0  0  0  0  0  0  0  0  0
   -1.8355    0.2970   -0.4419 C   0  0  0  0  0  0  0  0  0  0  0  0
   -1.9256   -0.7377    1.8005 C   0  0  0  0  0  0  0  0  0  0  0  0
    5.5918   -2.3157    1.1480 O   0  0  0  0  0  0  0  0  0  0  0  0
    2.4180    0.3265   -1.1271 C   0  0  0  0  0  0  0  0  0  0  0  0
   -3.0241   -1.4719    2.2898 N   0  0  0  0  0  0  0  0  0  0  0  0
   -4.0979    0.1529   -1.2950 N   0  0  0  0  0  0  0  0  0  0  0  0
    3.4134   -0.9192    1.4722 O   0  0  0  0  0  0  0  0  0  0  0  0
   -0.7304   -1.0308    2.0679 O   0  0  0  0  0  0  0  0  0  0  0  0
    4.7371   -0.9143    0.7388 P   0  0  0  0  0  0  0  0  0  0  0  0
   -4.1059   -0.9220    1.9245 N   0  0  0  0  0  0  0  0  0  0  0  0
   -0.3685    0.3206   -0.6920 C   0  0  0  0  0  0  0  0  0  0  0  0
   -2.3602    0.4207    0.9775 C   0  0  2  0  0  0  0  0  0  0  0  0
  1 20  1  0
  2  4  1  0
  2 21  1  0
  2 23  1  0
  3  8  1  0
  3 22  2  0
  4 10  1  0
  4 17  2  0
  5 12  2  0
  5 17  1  0
  6  9  2  0
  6 15  1  0
  7 11  1  0
  7 15  1  0
  8 15  2  0
  9 22  1  0
 11 20  1  0
 12 22  1  0
 23 12  1  6
 13 16  1  0
 13 19  2  0
 13 23  1  0
 14 20  1  0
 16 21  2  0
 18 20  2  0
M  END
