
     RDKit          3D

 24 26  0  0  0  0  0  0  0  0999 V2000
   -3.3923    0.7367   -0.1218 C   0  0  0  0  0  0  0  0  0  0  0  0
    0.6890    0.8090    0.7809 C   0  0  0  0  0  0  0  0  0  0  0  0
   -4.6949   -1.6487   -0.7941 N   0  0  0  0  0  0  0  0  0  0  0  0
    1.4959   -0.3307    0.6366 C   0  0  0  0  0  0  0  0  0  0  0  0
   -3.5119   -1.7264   -0.2549 C   0  0  0  0  0  0  0  0  0  0  0  0
   -5.2384   -0.4077   -1.3421 C   0  0  0  0  0  0  0  0  0  0  0  0
    3.8823   -1.1501    0.3129 N   0  0  0  0  0  0  0  0  0  0  0  0
   -0.6815    0.7535    0.5046 C   0  0  0  0  0  0  0  0  0  0  0  0
   -1.2896   -0.4688    0.1324 C   0  0  0  0  0  0  0  0  0  0  0  0
   -2.6911   -0.4848   -0.0902 C   0  0  0  0  0  0  0  0  0  0  0  0
   -2.7374    1.9269    0.2487 C   0  0  0  0  0  0  0  0  0  0  0  0
    5.3109   -1.1215    0.6123 C   0  0  0  0  0  0  0  0  0  0  0  0
    2.9467   -0.2519    0.9329 C   0  0  0  0  0  0  0  0  0  0  0  0
   -3.1461   -2.9488    0.3907 N   0  0  0  0  0  0  0  0  0  0  0  0
   -1.4170    1.8931    0.5640 N   0  0  0  0  0  0  0  0  0  0  0  0
    0.9054   -1.5297    0.2054 C   0  0  0  0  0  0  0  0  0  0  0  0
   -4.7603    0.7300   -0.5618 N   0  0  0  0  0  0  0  0  0  0  0  0
    3.3649    0.6298    1.7327 O   0  0  0  0  0  0  0  0  0  0  0  0
    7.6378    0.0366   -0.1962 O   0  0  0  0  0  0  0  0  0  0  0  0
   -0.4651   -1.5949   -0.0599 C   0  0  0  0  0  0  0  0  0  0  0  0
   -3.4521    3.2441    0.2863 C   0  0  0  0  0  0  0  0  0  0  0  0
    6.1536    0.0624   -0.4820 P   0  0  0  0  0  0  0  0  0  0  0  0
    5.8907   -0.3724   -2.0959 O   0  0  0  0  0  0  0  0  0  0  0  0
    5.5568    1.6238   -0.2161 O   0  0  0  0  0  0  0  0  0  0  0  0
  1 10  1  0
  1 11  2  0
  1 17  1  0
  2  4  2  0
  2  8  1  0
  3  5  2  0
  3  6  1  0
  4 13  1  0
  4 16  1  0
  5 10  1  0
  5 14  1  0
  6 17  1  0
  7 12  1  0
  7 13  1  0
  8  9  1  0
  8 15  2  0
  9 10  2  0
  9 20  1  0
 11 15  1  0
 11 21  1  0
 12 22  1  0
 13 18  2  0
 16 20  2  0
 19 22  2  0
 22 23  1  0
 22 24  1  0
M  END
