
     RDKit          3D

 17 18  0  0  0  0  0  0  0  0999 V2000
   27.1049   13.3159   20.9268 C   0  0  0  0  0  0  0  0  0  0  0  0
   27.0618   15.0119   22.9041 C   0  0  0  0  0  0  0  0  0  0  0  0
   26.4687   13.2272   19.8734 C   0  0  0  0  0  0  0  0  0  0  0  0
   25.6873   14.6702   21.7655 C   0  0  0  0  0  0  0  0  0  0  0  0
   28.3278   14.7632   22.2315 C   0  0  0  0  0  0  0  0  0  0  0  0
   30.2661   15.3011   20.9642 O   0  0  0  0  0  0  0  0  0  0  0  0
   23.3197   13.9031   22.2441 O   0  0  0  0  0  0  0  0  0  0  0  0
   23.5071   13.4774   19.9142 O   0  0  0  0  0  0  0  0  0  0  0  0
   25.4277   13.2244   19.4643 C   0  0  0  0  0  0  0  0  0  0  0  0
   24.4721   13.0380   20.5353 C   0  0  0  0  0  0  0  0  0  0  0  0
   28.1153   15.0945   23.6472 C   0  0  0  0  0  0  0  0  0  0  0  0
   24.4676   13.8233   21.4090 C   0  0  0  0  0  0  0  0  0  0  0  0
   29.1663   13.0624   20.1487 O   0  0  0  0  0  0  0  0  0  0  0  0
   28.4654   13.6612   21.1508 C   0  0  0  0  0  0  0  0  0  0  0  0
   27.3989   13.6759   21.1463 C   0  0  0  0  0  0  0  0  0  0  0  0
   29.4881   14.5641   21.8771 C   0  0  0  0  0  0  0  0  0  0  0  0
   26.1440   14.7892   22.1848 C   0  0  0  0  0  0  0  0  0  0  0  0
  1  3  1  0
  1 15  1  0
  2 11  1  0
  2 17  1  0
  3  9  1  0
  3 15  1  0
  4 12  1  0
  4 17  1  0
  5 11  1  0
  5 14  1  0
  5 16  2  3
  6 16  1  0
  7 12  1  0
  8 10  1  0
  9 10  1  0
 10 12  1  0
 13 14  1  0
 14 15  1  0
M  END
$$$$
