
     RDKit          3D

 11 11  0  0  0  0  0  0  0  0999 V2000
   23.8479   13.8505   20.5683 O   0  0  0  0  0  0  0  0  0  0  0  0
   27.5807   14.7401   18.4917 C   0  0  0  0  0  0  0  0  0  0  0  0
   24.2119   13.6558   18.2054 O   0  0  0  0  0  0  0  0  0  0  0  0
   25.2582   14.0588   18.7770 C   0  0  0  0  0  0  0  0  0  0  0  0
   30.1595   15.1006   19.7147 O   0  0  0  0  0  0  0  0  0  0  0  0
   27.7438   14.8845   19.8551 C   0  0  0  0  0  0  0  0  0  0  0  0
   29.1274   15.2957   20.3930 C   0  0  0  0  0  0  0  0  0  0  0  0
   26.7046   14.6274   20.7254 C   0  0  0  0  0  0  0  0  0  0  0  0
   25.2710   14.1635   20.1346 C   0  0  0  0  0  0  0  0  0  0  0  0
   26.3831   14.3342   17.9374 C   0  0  0  0  0  0  0  0  0  0  0  0
   29.2077   15.8200   21.6857 O   0  0  0  0  0  0  0  0  0  0  0  0
  1  9  1  0
  2  6  1  0
  2 10  2  0
  3  4  1  0
  4  9  2  0
  4 10  1  0
  5  7  1  0
  6  7  1  0
  6  8  2  0
  7 11  2  0
  8  9  1  0
M  END
$$$$
