
     RDKit          3D

 13 14  0  0  0  0  0  0  0  0999 V2000
    0.4480    0.6040   -1.1756 C   0  0  0  0  0  0  0  0  0  0  0  0
   -1.5647    0.4306   -0.2473 C   0  0  0  0  0  0  0  0  0  0  0  0
   -2.8851   -0.0300    0.0486 N   0  0  0  0  0  0  0  0  0  0  0  0
    1.6049   -0.2841   -0.8480 C   0  0  0  0  0  0  0  0  0  0  0  0
    1.9821   -1.3829   -1.6182 O   0  0  0  0  0  0  0  0  0  0  0  0
    3.3971   -0.5419    0.8973 C   0  0  0  0  0  0  0  0  0  0  0  0
   -4.6949   -1.3372   -0.1896 O   0  0  0  0  0  0  0  0  0  0  0  0
   -3.4949   -1.0163   -0.7495 N   0  0  0  0  0  0  0  0  0  0  0  0
    0.3905    1.4257    0.0607 C   0  0  0  0  0  0  0  0  0  0  0  0
    2.2248    0.1346    0.2606 C   0  0  0  0  0  0  0  0  0  0  0  0
   -0.8269    1.3753    0.5785 C   0  0  0  0  0  0  0  0  0  0  0  0
   -0.8440   -0.0678   -1.1996 N   0  0  0  0  0  0  0  0  0  0  0  0
    1.5500    1.2384    0.8594 N   0  0  0  0  0  0  0  0  0  0  0  0
  1  4  1  0
  1  9  1  0
  1 12  1  0
  2  3  1  0
  2 11  1  0
  2 12  2  0
  3  8  1  0
  4  5  1  0
  4 10  2  0
  6 10  1  0
  7  8  1  0
  9 11  2  0
  9 13  1  0
 10 13  1  0
M  END
