
     RDKit          3D

 14 14  0  0  0  0  0  0  0  0999 V2000
    0.1608    1.3167   -0.3004 C   0  0  0  0  0  0  0  0  0  0  0  0
   -5.0801    0.8457    0.3736 O   0  0  0  0  0  0  0  0  0  0  0  0
    0.3935   -2.3817    0.0091 O   0  0  0  0  0  0  0  0  0  0  0  0
   -0.2531   -0.0262   -0.2549 C   0  0  0  0  0  0  0  0  0  0  0  0
   -2.6795    0.3756    0.0292 C   0  0  0  0  0  0  0  0  0  0  0  0
    1.4732    1.6384   -0.1750 N   0  0  0  0  0  0  0  0  0  0  0  0
    3.0741   -1.6282    0.2187 O   0  0  0  0  0  0  0  0  0  0  0  0
    2.0816   -0.6610    0.0450 C   0  0  0  0  0  0  0  0  0  0  0  0
   -4.4272   -0.9944   -0.8309 O   0  0  0  0  0  0  0  0  0  0  0  0
   -1.6806   -0.3754   -0.4538 C   0  0  0  0  0  0  0  0  0  0  0  0
    3.8659    1.1208    0.1254 C   0  0  0  0  0  0  0  0  0  0  0  0
    2.4357    0.6954   -0.0042 C   0  0  0  0  0  0  0  0  0  0  0  0
    0.7294   -1.0273   -0.0755 C   0  0  0  0  0  0  0  0  0  0  0  0
   -4.0958    0.0286   -0.1723 C   0  0  0  0  0  0  0  0  0  0  0  0
  1  4  1  0
  1  6  2  0
  2 14  1  0
  3 13  1  0
  4 10  1  0
  4 13  2  0
  5 10  2  3
  5 14  1  0
  6 12  1  0
  7  8  1  0
  8 12  2  0
  8 13  1  0
  9 14  2  0
 11 12  1  0
M  END
