
     RDKit          3D

 21 22  0  0  0  0  0  0  0  0999 V2000
   -3.7672    2.3512    1.2364 O   0  0  0  0  0  0  0  0  0  0  0  0
    2.2798    0.2053    0.5695 C   0  0  0  0  0  0  0  0  0  0  0  0
    1.1824    0.8993    1.0825 C   0  0  0  0  0  0  0  0  0  0  0  0
   -1.1664    1.4483    0.9367 O   0  0  0  0  0  0  0  0  0  0  0  0
   -5.8688    0.8584    0.0807 O   0  0  0  0  0  0  0  0  0  0  0  0
   -2.7561    1.3912    0.2775 P   0  0  1  0  0  0  0  0  0  0  0  0
    0.9808   -0.7602   -1.2198 C   0  0  0  0  0  0  0  0  0  0  0  0
   -3.2956   -0.2248    0.2907 O   0  0  0  0  0  0  0  0  0  0  0  0
   -4.5657   -0.0376   -2.0122 O   0  0  0  0  0  0  0  0  0  0  0  0
   -0.0596    0.7547    0.4221 C   0  0  0  0  0  0  0  0  0  0  0  0
    1.3347    1.9222    2.5053 Cl  0  0  0  0  0  0  0  0  0  0  0  0
    3.6074    0.1208    0.9367 C   0  0  0  0  0  0  0  0  0  0  0  0
   -2.7238    1.9457   -1.1301 O   0  0  0  0  0  0  0  0  0  0  0  0
   -4.7827   -0.2856   -0.5360 P   0  0  0  0  0  0  0  0  0  0  0  0
   -5.4464   -1.8287   -0.3374 O   0  0  0  0  0  0  0  0  0  0  0  0
    2.1816   -0.5947   -0.5403 C   0  0  0  0  0  0  0  0  0  0  0  0
    3.3804   -1.1356   -0.8312 N   0  0  0  0  0  0  0  0  0  0  0  0
    5.6739   -1.0119    0.0669 C   0  0  0  0  0  0  0  0  0  0  0  0
    4.2476   -0.7065    0.0792 N   0  0  0  0  0  0  0  0  0  0  0  0
   -0.1490   -0.0795   -0.7312 C   0  0  0  0  0  0  0  0  0  0  0  0
    4.1569    0.7163    1.9018 O   0  0  0  0  0  0  0  0  0  0  0  0
  6  1  1  1
  2  3  1  0
  2 12  1  0
  2 16  2  0
  3 10  2  0
  3 11  1  0
  4  6  1  0
  4 10  1  0
  5 14  1  0
  6  8  1  0
  6 13  2  0
  7 16  1  0
  7 20  2  0
  8 14  1  0
  9 14  2  0
 10 20  1  0
 12 19  1  0
 12 21  2  0
 14 15  1  0
 16 17  1  0
 17 19  1  0
 18 19  1  0
M  END
