
     RDKit          3D

 24 25  0  0  0  0  0  0  0  0999 V2000
    6.3999  107.8024   19.5335 C   0  0  0  0  0  0  0  0  0  0  0  0
   -3.4195  108.8750   23.7213 O   0  0  0  0  0  0  0  0  0  0  0  0
   -2.4159  107.9123   24.0223 C   0  0  2  0  0  0  0  0  0  0  0  0
    3.8650  108.2371   22.3447 C   0  0  0  0  0  0  0  0  0  0  0  0
   -0.1699  107.7027   24.8073 O   0  0  0  0  0  0  0  0  0  0  0  0
    3.1803  107.0151   22.3138 C   0  0  0  0  0  0  0  0  0  0  0  0
    3.5419  106.0598   21.3558 C   0  0  0  0  0  0  0  0  0  0  0  0
   -2.1010  106.7772   21.7485 C   0  0  0  0  0  0  0  0  0  0  0  0
    8.7373  107.9900   18.2585 O   0  0  0  0  0  0  0  0  0  0  0  0
    2.0485  106.7547   23.2717 C   0  0  0  0  0  0  0  0  0  0  0  0
    8.6922  107.5203   19.3792 C   0  0  0  0  0  0  0  0  0  0  0  0
   -1.4033  108.4141   25.0592 C   0  0  2  0  0  0  0  0  0  0  0  0
    9.7480  107.0668   20.0699 O   0  0  0  0  0  0  0  0  0  0  0  0
    7.6047  107.3533   20.1566 O   0  0  0  0  0  0  0  0  0  0  0  0
   -3.0593  109.0459   26.8862 C   0  0  0  0  0  0  0  0  0  0  0  0
   -1.9535  106.7941   26.9737 C   0  0  0  0  0  0  0  0  0  0  0  0
   -0.2728  107.0642   23.5248 C   0  0  2  0  0  0  0  0  0  0  0  0
   -1.1976  108.9415   22.2255 O   0  0  0  0  0  0  0  0  0  0  0  0
    4.5811  106.3144   20.4573 C   0  0  0  0  0  0  0  0  0  0  0  0
    0.8676  107.3176   22.7105 O   0  0  0  0  0  0  0  0  0  0  0  0
   -1.7984  108.2553   26.5404 C   0  0  0  0  0  0  0  0  0  0  0  0
    4.9040  108.4922   21.4467 C   0  0  0  0  0  0  0  0  0  0  0  0
    5.2664  107.5360   20.4893 C   0  0  0  0  0  0  0  0  0  0  0  0
   -1.5066  107.6627   22.8295 C   0  0  2  0  0  0  0  0  0  0  0  0
  1 14  1  0
  1 23  1  0
  3  2  1  6
  3 12  1  0
  3 24  1  0
  4  6  2  0
  4 22  1  0
  5 12  1  0
  5 17  1  0
  6  7  1  0
  6 10  1  0
  7 19  2  0
 24  8  1  6
  9 11  2  0
 10 20  1  0
 11 13  1  0
 11 14  1  0
 12 21  1  1
 15 21  1  0
 16 21  1  0
 17 20  1  6
 17 24  1  0
 18 24  1  0
 19 23  1  0
 22 23  2  0
M  END
$$$$
