
     RDKit          3D

 18 19  0  0  0  0  0  0  0  0999 V2000
   -0.5148   -0.7231   -1.2534 C   0  0  0  0  0  0  0  0  0  0  0  0
   -2.1297    0.7876   -0.0428 C   0  0  0  0  0  0  0  0  0  0  0  0
    2.9552    0.2662   -1.2403 C   0  0  0  0  0  0  0  0  0  0  0  0
    3.2714    1.2456    1.3338 C   0  0  0  0  0  0  0  0  0  0  0  0
    2.5320    0.0758    1.1371 C   0  0  0  0  0  0  0  0  0  0  0  0
   -4.4880    0.2847   -0.0104 C   0  0  0  0  0  0  0  0  0  0  0  0
    1.5647   -1.6797   -0.4505 C   0  0  0  0  0  0  0  0  0  0  0  0
    4.7647    3.3680    0.4687 Cl  0  0  0  0  0  0  0  0  0  0  0  0
   -3.6412    2.2431    1.1526 O   0  0  0  0  0  0  0  0  0  0  0  0
    2.3687   -0.4326   -0.1718 C   0  0  0  0  0  0  0  0  0  0  0  0
   -3.4243    1.1113    0.3703 C   0  0  0  0  0  0  0  0  0  0  0  0
   -3.0031   -1.1539   -1.1804 C   0  0  0  0  0  0  0  0  0  0  0  0
    3.8367    1.8999    0.2382 C   0  0  0  0  0  0  0  0  0  0  0  0
    1.9764   -0.5513    2.2543 O   0  0  0  0  0  0  0  0  0  0  0  0
    3.6669    1.4010   -1.0130 N   0  0  0  0  0  0  0  0  0  0  0  0
   -4.2549   -0.8205   -0.7670 N   0  0  0  0  0  0  0  0  0  0  0  0
    0.1423   -1.4534   -0.1622 N   0  0  0  0  0  0  0  0  0  0  0  0
   -1.9086   -0.3464   -0.8372 C   0  0  0  0  0  0  0  0  0  0  0  0
  1 17  1  0
  1 18  1  0
  2 11  2  0
  2 18  1  0
  3 10  1  0
  3 15  2  0
  4  5  1  0
  4 13  2  0
  5 10  2  0
  5 14  1  0
  6 11  1  0
  6 16  2  0
  7 10  1  0
  7 17  1  0
  8 13  1  0
  9 11  1  0
 12 16  1  0
 12 18  2  0
 13 15  1  0
M  END
