
     RDKit          3D

 20 23  0  0  0  0  0  0  0  0999 V2000
    4.7412   -0.2527   -0.2877 N   0  0  0  0  0  0  0  0  0  0  0  0
    3.3309   -0.0944    2.0822 C   0  0  0  0  0  0  0  0  0  0  0  0
   -3.6128    0.8591   -0.6151 C   0  0  0  0  0  0  0  0  0  0  0  0
    1.1437   -0.3765    0.8405 C   0  0  0  0  0  0  0  0  0  0  0  0
   -5.4261   -0.0685    0.3293 C   0  0  0  0  0  0  0  0  0  0  0  0
   -1.7807   -0.4571    0.2432 C   0  0  0  0  0  0  0  0  0  0  0  0
   -4.2732   -0.8739    0.8511 C   0  0  0  0  0  0  0  0  0  0  0  0
    2.6440   -0.2319    0.8684 C   0  0  0  0  0  0  0  0  0  0  0  0
   -0.8709    0.3347   -0.4975 C   0  0  0  0  0  0  0  0  0  0  0  0
    5.4206   -0.1013    0.8803 C   0  0  0  0  0  0  0  0  0  0  0  0
   -6.6298   -0.2801    0.6307 O   0  0  0  0  0  0  0  0  0  0  0  0
    0.5504    0.0691   -0.4379 N   0  0  0  0  0  0  0  0  0  0  0  0
    2.6659   -0.5139   -1.6158 C   0  0  0  0  0  0  0  0  0  0  0  0
    1.3818    0.3176   -1.6321 C   0  0  0  0  0  0  0  0  0  0  0  0
   -1.3744    1.3960   -1.2956 C   0  0  0  0  0  0  0  0  0  0  0  0
   -5.0219    0.9732   -0.5527 N   0  0  0  0  0  0  0  0  0  0  0  0
   -2.7514    1.6612   -1.3568 C   0  0  0  0  0  0  0  0  0  0  0  0
    4.7252   -0.0197    2.0887 C   0  0  0  0  0  0  0  0  0  0  0  0
   -3.1437   -0.1736    0.1658 C   0  0  0  0  0  0  0  0  0  0  0  0
    3.3818   -0.3143   -0.3204 C   0  0  0  0  0  0  0  0  0  0  0  0
  1 10  1  0
  1 20  2  0
  2  8  2  0
  2 18  1  0
  3 16  1  0
  3 17  1  0
  3 19  2  0
  4  8  1  0
  4 12  1  0
  5  7  1  0
  5 11  2  0
  5 16  1  0
  6  9  2  0
  6 19  1  0
  7 19  1  0
  8 20  1  0
  9 12  1  0
  9 15  1  0
 10 18  2  0
 12 14  1  0
 13 14  1  0
 13 20  1  0
 15 17  2  0
M  END
