
     RDKit          3D

 26 29  0  0  0  0  0  0  0  0999 V2000
   -0.7004   -1.5623   -0.5672 C   0  0  0  0  0  0  0  0  0  0  0  0
    6.4738    0.2748    0.3292 C   0  0  0  0  0  0  0  0  0  0  0  0
   -5.7217    2.5952   -0.4544 C   0  0  0  0  0  0  0  0  0  0  0  0
   -6.2693    1.1853    1.4333 C   0  0  0  0  0  0  0  0  0  0  0  0
   -0.6490   -0.1624   -0.6525 C   0  0  0  0  0  0  0  0  0  0  0  0
   -3.0210   -0.0499   -0.0967 C   0  0  0  0  0  0  0  0  0  0  0  0
    1.8636    0.1552   -0.5359 C   0  0  0  0  0  0  0  0  0  0  0  0
    3.8334   -0.6101    0.6707 C   0  0  0  0  0  0  0  0  0  0  0  0
   -5.1148    0.4295    1.2076 C   0  0  0  0  0  0  0  0  0  0  0  0
   -1.9445   -3.6535   -0.1312 N   0  0  0  0  0  0  0  0  0  0  0  0
    0.5628    0.5148   -1.0206 N   0  0  0  0  0  0  0  0  0  0  0  0
    6.1727   -0.5165    1.3257 N   0  0  0  0  0  0  0  0  0  0  0  0
   -4.2487    0.7505    0.1450 C   0  0  0  0  0  0  0  0  0  0  0  0
   -3.0500   -1.4513    0.0130 C   0  0  0  0  0  0  0  0  0  0  0  0
   -0.9220   -4.3402   -0.3363 O   0  0  0  0  0  0  0  0  0  0  0  0
    4.0963    0.2179   -0.4006 C   0  0  0  0  0  0  0  0  0  0  0  0
   -3.1180   -4.2946    0.1941 O   0  0  0  0  0  0  0  0  0  0  0  0
   -1.8147    0.5834   -0.4394 C   0  0  0  0  0  0  0  0  0  0  0  0
   -4.5653    1.8434   -0.6842 C   0  0  0  0  0  0  0  0  0  0  0  0
    2.1746   -0.8349    0.8036 S   0  0  0  0  0  0  0  0  0  0  0  0
    3.0005    0.6545   -1.0747 N   0  0  0  0  0  0  0  0  0  0  0  0
   -6.5727    2.2667    0.6032 C   0  0  0  0  0  0  0  0  0  0  0  0
    5.5015    0.5389   -0.8045 C   0  0  0  0  0  0  0  0  0  0  0  0
    7.7590    0.8954    0.2996 N   0  0  0  0  0  0  0  0  0  0  0  0
    4.9141   -1.2603    1.4659 C   0  0  0  0  0  0  0  0  0  0  0  0
   -1.8963   -2.2173   -0.2255 C   0  0  0  0  0  0  0  0  0  0  0  0
  1  5  1  0
  1 26  2  0
  2 12  2  0
  2 23  1  0
  2 24  1  0
  3 19  1  0
  3 22  2  0
  4  9  2  0
  4 22  1  0
  5 11  1  0
  5 18  2  0
  6 13  1  0
  6 14  2  0
  6 18  1  0
  7 11  1  0
  7 20  1  0
  7 21  2  0
  8 16  2  0
  8 20  1  0
  8 25  1  0
  9 13  1  0
 10 15  2  0
 10 17  1  0
 10 26  1  0
 12 25  1  0
 13 19  2  0
 14 26  1  0
 16 21  1  0
 16 23  1  0
M  CHG  2  10   1  17  -1
M  END
