
     RDKit          3D

 18 19  0  0  0  0  0  0  0  0999 V2000
   -1.6276   -2.2348    0.7637 C   0  0  0  0  0  0  0  0  0  0  0  0
   -0.5182   -1.6991    1.5481 N   0  0  0  0  0  0  0  0  0  0  0  0
    4.5870    1.0404   -0.8845 O   0  0  0  0  0  0  0  0  0  0  0  0
    1.9021   -0.4139    1.8016 S   0  0  0  0  0  0  0  0  0  0  0  0
   -3.9124    1.0161   -0.9174 C   0  0  0  0  0  0  0  0  0  0  0  0
    2.7217    0.0342    0.3993 C   0  0  0  0  0  0  0  0  0  0  0  0
    0.7995   -0.9857   -0.3957 N   0  0  0  0  0  0  0  0  0  0  0  0
   -3.1258    0.2109   -1.7475 C   0  0  0  0  0  0  0  0  0  0  0  0
    5.8368    1.7091   -1.0026 C   0  0  0  0  0  0  0  0  0  0  0  0
   -3.9596    0.7582    0.4594 C   0  0  0  0  0  0  0  0  0  0  0  0
    4.6021    1.0303    1.4256 O   0  0  0  0  0  0  0  0  0  0  0  0
    4.0151    0.7252    0.3517 C   0  0  0  0  0  0  0  0  0  0  0  0
    1.9669   -0.3604   -0.7016 C   0  0  0  0  0  0  0  0  0  0  0  0
    0.6246   -1.0880    0.9407 C   0  0  0  0  0  0  0  0  0  0  0  0
   -4.6407    2.0679   -1.4685 O   0  0  0  0  0  0  0  0  0  0  0  0
   -2.3892   -0.8482   -1.2082 C   0  0  0  0  0  0  0  0  0  0  0  0
   -3.2235   -0.2999    1.0011 C   0  0  0  0  0  0  0  0  0  0  0  0
   -2.4362   -1.1132    0.1704 C   0  0  0  0  0  0  0  0  0  0  0  0
  1  2  1  0
  1 18  1  0
  2 14  1  0
  3  9  1  0
  3 12  1  0
  4  6  1  0
  4 14  1  0
  5  8  1  0
  5 10  2  0
  5 15  1  0
  6 12  1  0
  6 13  2  0
  7 13  1  0
  7 14  2  0
  8 16  2  0
 10 17  1  0
 11 12  2  0
 16 18  1  0
 17 18  2  0
M  END
