
     RDKit          3D

 33 38  0  0  0  0  0  0  0  0999 V2000
  -19.2262    1.2660  -30.7339 O   0  0  0  0  0  0  0  0  0  0  0  0
  -20.6103   -3.5098  -30.1865 C   0  0  0  0  0  0  0  0  0  0  0  0
  -27.1760    1.9611  -33.9466 C   0  0  0  0  0  0  0  0  0  0  0  0
  -23.6835    1.4943  -31.8927 C   0  0  0  0  0  0  0  0  0  0  0  0
  -22.0807   -1.6652  -30.5525 C   0  0  0  0  0  0  0  0  0  0  0  0
  -24.7104    5.7257  -32.0370 C   0  0  0  0  0  0  0  0  0  0  0  0
  -20.4268    1.4582  -30.4193 C   0  0  0  0  0  0  0  0  0  0  0  0
  -23.6250    6.5156  -31.4351 O   0  0  0  0  0  0  0  0  0  0  0  0
  -24.3197   -0.9609  -32.7930 C   0  0  0  0  0  0  0  0  0  0  0  0
  -26.1152    1.0326  -32.8699 C   0  0  0  0  0  0  0  0  0  0  0  0
  -21.0252    0.4556  -29.6058 O   0  0  0  0  0  0  0  0  0  0  0  0
  -24.3813   -0.5014  -34.2943 O   0  0  0  0  0  0  0  0  0  0  0  0
  -22.9620    3.8008  -31.7143 N   0  0  0  0  0  0  0  0  0  0  0  0
  -27.8004    3.3028  -36.1228 C   0  0  0  0  0  0  0  0  0  0  0  0
  -21.0650   -0.9141  -29.8646 C   0  0  0  0  0  0  0  0  0  0  0  0
  -19.7378   -2.8716  -29.3074 C   0  0  0  0  0  0  0  0  0  0  0  0
  -19.9015   -1.5063  -29.1692 C   0  0  0  0  0  0  0  0  0  0  0  0
  -23.4708   -0.2449  -32.2615 C   0  0  0  0  0  0  0  0  0  0  0  0
  -21.8630    4.5726  -31.3620 C   0  0  0  0  0  0  0  0  0  0  0  0
  -21.3235    2.5651  -30.9338 C   0  0  0  0  0  0  0  0  0  0  0  0
  -29.1108    3.5169  -35.6184 C   0  0  0  0  0  0  0  0  0  0  0  0
  -22.6452    2.4007  -31.5470 C   0  0  0  0  0  0  0  0  0  0  0  0
  -25.5427   -0.2780  -33.5700 C   0  0  0  0  0  0  0  0  0  0  0  0
  -29.4919    2.9977  -34.3325 C   0  0  0  0  0  0  0  0  0  0  0  0
  -28.4882    2.2511  -33.5739 C   0  0  0  0  0  0  0  0  0  0  0  0
  -23.1959   -0.9541  -31.1163 N   0  0  0  0  0  0  0  0  0  0  0  0
  -21.7781   -2.9615  -30.7527 C   0  0  0  0  0  0  0  0  0  0  0  0
  -26.7597    2.5059  -35.2558 C   0  0  0  0  0  0  0  0  0  0  0  0
  -20.8874    3.9810  -30.8916 C   0  0  0  0  0  0  0  0  0  0  0  0
  -24.8610    1.6436  -32.6995 O   0  0  0  0  0  0  0  0  0  0  0  0
  -20.2787   -5.1087  -30.5078 Cl  0  0  0  0  0  0  0  0  0  0  0  0
  -24.1385    4.3284  -32.2789 O   0  0  0  0  0  0  0  0  0  0  0  0
  -25.8117    6.1513  -32.1313 O   0  0  0  0  0  0  0  0  0  0  0  0
  1  7  2  0
  2 16  1  0
  2 27  2  0
  2 31  1  0
  3 10  1  0
  3 25  1  0
  3 28  2  0
  4 18  1  0
  4 22  1  0
  4 30  1  0
  5 15  2  0
  5 26  1  0
  5 27  1  0
  6  8  2  0
  6 32  1  0
  6 33  1  0
  7 11  1  0
  7 20  1  0
  9 12  1  0
  9 18  1  0
  9 23  1  0
 10 23  1  0
 10 30  1  0
 11 15  1  0
 12 23  1  0
 13 19  1  0
 13 22  1  0
 13 32  1  0
 14 21  2  0
 14 28  1  0
 15 17  1  0
 16 17  2  0
 18 26  1  0
 19 29  2  0
 20 22  2  0
 20 29  1  0
 21 24  1  0
 24 25  2  0
M  END
$$$$
