
     RDKit          3D

 30 33  0  0  0  0  0  0  0  0999 V2000
   27.2745   38.2698   21.2708 C   0  0  0  0  0  0  0  0  0  0  0  0
   38.2895   45.7715   15.9119 C   0  0  0  0  0  0  0  0  0  0  0  0
   37.9690   45.0179   17.0497 C   0  0  0  0  0  0  0  0  0  0  0  0
   36.9262   43.2571   18.2400 C   0  0  0  0  0  0  0  0  0  0  0  0
   28.6734   39.4695   20.1239 N   0  0  0  0  0  0  0  0  0  0  0  0
   37.2183   46.0387   14.5158 Cl  0  0  0  0  0  0  0  0  0  0  0  0
   40.3606   46.4072   16.9670 N   0  0  0  0  0  0  0  0  0  0  0  0
   26.9572   37.1408   22.1899 C   0  0  0  0  0  0  0  0  0  0  0  0
   40.0828   45.6446   18.0447 C   0  0  0  0  0  0  0  0  0  0  0  0
   32.1019   42.4021   18.7580 C   0  0  0  0  0  0  0  0  0  0  0  0
   28.4726   38.4277   20.8265 N   0  0  0  0  0  0  0  0  0  0  0  0
   30.8006   42.4128   18.8271 C   0  0  0  0  0  0  0  0  0  0  0  0
   32.7268   41.2543   18.2461 C   0  0  0  0  0  0  0  0  0  0  0  0
   34.7976   42.2406   17.7897 C   0  0  0  0  0  0  0  0  0  0  0  0
   34.6394   43.0798   16.6643 C   0  0  0  0  0  0  0  0  0  0  0  0
   35.6252   44.0374   16.3904 C   0  0  0  0  0  0  0  0  0  0  0  0
   32.0132   40.1023   17.8669 C   0  0  0  0  0  0  0  0  0  0  0  0
   39.9192   47.2366   14.9449 N   0  0  0  0  0  0  0  0  0  0  0  0
   36.7378   44.2225   17.2493 C   0  0  0  0  0  0  0  0  0  0  0  0
   28.7747   41.8604   18.6523 N   0  0  0  0  0  0  0  0  0  0  0  0
   39.4983   46.4783   15.9557 C   0  0  0  0  0  0  0  0  0  0  0  0
   41.1156   45.6024   19.1403 C   0  0  0  0  0  0  0  0  0  0  0  0
   38.9093   44.9482   18.1094 C   0  0  0  0  0  0  0  0  0  0  0  0
   35.9722   42.3194   18.5511 C   0  0  0  0  0  0  0  0  0  0  0  0
   27.5361   40.1914   20.0104 C   0  0  0  0  0  0  0  0  0  0  0  0
   34.0941   41.1720   18.1245 O   0  0  0  0  0  0  0  0  0  0  0  0
   30.6156   40.1486   17.9671 C   0  0  0  0  0  0  0  0  0  0  0  0
   27.5177   41.5277   19.2902 C   0  0  0  0  0  0  0  0  0  0  0  0
   26.2261   39.4581   20.7821 S   0  0  0  0  0  0  0  0  0  0  0  0
   30.0260   41.3284   18.4503 C   0  0  0  0  0  0  0  0  0  0  0  0
  1  8  1  0
  1 11  2  0
  1 29  1  0
  2  3  2  0
  2  6  1  0
  2 21  1  0
  3 19  1  0
  3 23  1  0
  4 19  2  0
  4 24  1  0
  5 11  1  0
  5 25  2  0
  7  9  1  0
  7 21  2  0
  9 22  1  0
  9 23  2  0
 10 12  2  0
 10 13  1  0
 12 30  1  0
 13 17  2  0
 13 26  1  0
 14 15  1  0
 14 24  2  0
 14 26  1  0
 15 16  2  0
 16 19  1  0
 17 27  1  0
 18 21  1  0
 20 28  2  3
 20 30  1  0
 25 28  1  0
 25 29  1  0
 27 30  2  0
M  END
$$$$
