
     RDKit          3D

 12 12  0  0  0  0  0  0  0  0999 V2000
   94.7413   70.9429   -4.7607 N   0  0  0  0  0  0  0  0  0  0  0  0
   89.8905   68.3510   -2.7160 C   0  0  0  0  0  0  0  0  0  0  0  0
   96.0866   70.5339   -5.1178 C   0  0  0  0  0  0  0  0  0  0  0  0
   91.3880   68.7527   -4.4543 O   0  0  0  0  0  0  0  0  0  0  0  0
   94.1553   71.9827   -5.5536 C   0  0  0  0  0  0  0  0  0  0  0  0
   90.9394   68.8725   -3.3705 C   0  0  0  0  0  0  0  0  0  0  0  0
   92.2659   71.7984   -3.8553 C   0  0  0  0  0  0  0  0  0  0  0  0
   92.6868   72.0414   -5.2795 C   0  0  0  0  0  0  0  0  0  0  0  0
   92.2660   69.6055   -1.6796 O   0  0  0  0  0  0  0  0  0  0  0  0
   92.5839   70.3294   -3.6898 C   0  0  0  0  0  0  0  0  0  0  0  0
   94.1985   70.3131   -3.5486 C   0  0  0  0  0  0  0  0  0  0  0  0
   91.8591   69.5602   -2.8587 C   0  0  0  0  0  0  0  0  0  0  0  0
  1  3  1  0
  1  5  1  0
  1 11  1  0
  2  6  1  0
  4  6  2  0
  5  8  1  0
  6 12  1  0
  7  8  1  0
  7 10  1  0
  9 12  2  0
 10 11  1  0
 10 12  1  0
M  END
$$$$
