
     RDKit          3D

 11 12  0  0  0  0  0  0  0  0999 V2000
   91.8090   70.1647   -4.5766 C   0  0  0  0  0  0  0  0  0  0  0  0
   89.9238   68.5615   -5.4241 O   0  0  0  0  0  0  0  0  0  0  0  0
   93.2804   70.2990   -3.9744 C   0  0  0  0  0  0  0  0  0  0  0  0
   92.5455   71.1808   -5.6120 C   0  0  0  0  0  0  0  0  0  0  0  0
   90.2777   68.2144   -4.0512 C   0  0  0  0  0  0  0  0  0  0  0  0
   93.6654   70.8897   -5.7413 N   0  0  0  0  0  0  0  0  0  0  0  0
   94.5193   71.7464   -6.4805 C   0  0  0  0  0  0  0  0  0  0  0  0
   91.8056   69.0816   -2.1713 O   0  0  0  0  0  0  0  0  0  0  0  0
   91.1346   69.4921   -5.8229 C   0  0  0  0  0  0  0  0  0  0  0  0
   91.3968   68.9740   -3.6066 C   0  0  0  0  0  0  0  0  0  0  0  0
   89.3423   68.1888   -3.1295 C   0  0  0  0  0  0  0  0  0  0  0  0
  1  3  1  0
  1  4  1  0
  1  9  1  0
  1 10  1  0
  2  5  1  0
  2  9  2  0
  3  6  1  0
  4  6  1  0
  5 10  1  0
  5 11  1  0
  6  7  1  0
  8 10  1  0
M  END
$$$$
