
     RDKit          3D

  9  9  0  0  0  0  0  0  0  0999 V2000
   94.0601   71.6267   -5.0908 C   0  0  0  0  0  0  0  0  0  0  0  0
   95.4793   71.1569   -4.9556 N   0  0  0  0  0  0  0  0  0  0  0  0
   92.1581   69.2829   -3.0577 C   0  0  0  0  0  0  0  0  0  0  0  0
   93.0591   71.0515   -4.1679 C   0  0  0  0  0  0  0  0  0  0  0  0
   93.5232   69.9715   -3.0800 C   0  0  0  0  0  0  0  0  0  0  0  0
   91.8204   68.7590   -1.9066 O   0  0  0  0  0  0  0  0  0  0  0  0
   91.5492   69.1858   -4.0531 C   0  0  0  0  0  0  0  0  0  0  0  0
   92.0271   70.3556   -4.9576 O   0  0  0  0  0  0  0  0  0  0  0  0
   90.0779   69.2000   -3.9139 O   0  0  0  0  0  0  0  0  0  0  0  0
  1  2  1  0
  1  4  1  0
  3  5  1  0
  3  6  2  0
  3  7  1  0
  4  5  1  0
  4  8  1  0
  7  8  1  0
  7  9  1  0
M  END
$$$$
