
     RDKit          3D

 11 11  0  0  0  0  0  0  0  0999 V2000
  -10.4257    4.3178  -30.0146 N   0  0  0  0  0  0  0  0  0  0  0  0
   -5.6289    3.1159  -31.4841 O   0  0  0  0  0  0  0  0  0  0  0  0
   -6.2834    2.8885  -33.6245 O   0  0  0  0  0  0  0  0  0  0  0  0
   -9.4497    4.1720  -29.1813 C   0  0  0  0  0  0  0  0  0  0  0  0
   -8.2422    3.5649  -29.8110 C   0  0  0  0  0  0  0  0  0  0  0  0
   -8.6239    3.2878  -31.2369 C   0  0  1  0  0  0  0  0  0  0  0  0
   -6.4929    3.3173  -32.4994 C   0  0  0  0  0  0  0  0  0  0  0  0
   -9.4091    4.5503  -27.9149 O   0  0  0  0  0  0  0  0  0  0  0  0
  -10.0273    3.7464  -31.2017 N   0  0  0  0  0  0  0  0  0  0  0  0
   -7.1570    3.4665  -29.2701 O   0  0  0  0  0  0  0  0  0  0  0  0
   -7.7238    4.1082  -32.1428 C   0  0  0  0  0  0  0  0  0  0  0  0
  1  4  2  0
  1  9  1  0
  2  7  1  0
  3  7  2  0
  4  5  1  0
  4  8  1  0
  5  6  1  0
  5 10  2  0
  6  9  1  0
  6 11  1  6
  7 11  1  0
M  END
$$$$
