
     RDKit          3D

 10  9  0  0  0  0  0  0  0  0999 V2000
   27.9083   16.1451   19.2670 O   0  0  0  0  0  0  0  0  0  0  0  0
   26.9206   13.5318   20.0870 C   0  0  1  0  0  0  0  0  0  0  0  0
   28.6087   16.5987   21.3886 O   0  0  0  0  0  0  0  0  0  0  0  0
   27.9317   14.2783   22.1922 O   0  0  0  0  0  0  0  0  0  0  0  0
   25.4213   13.6792   20.3972 C   0  0  0  0  0  0  0  0  0  0  0  0
   27.6587   14.4760   21.0082 C   0  0  0  0  0  0  0  0  0  0  0  0
   24.7252   12.6907   19.6493 O   0  0  0  0  0  0  0  0  0  0  0  0
   27.3200   12.1731   20.3138 O   0  0  0  0  0  0  0  0  0  0  0  0
   24.9572   14.9482   19.9991 O   0  0  0  0  0  0  0  0  0  0  0  0
   28.0568   15.8280   20.4280 C   0  0  0  0  0  0  0  0  0  0  0  0
  1 10  2  0
  2  5  1  0
  2  6  1  0
  2  8  1  1
  3 10  1  0
  4  6  2  0
  5  7  1  0
  5  9  1  0
  6 10  1  0
M  END
$$$$
