
     RDKit          3D

 26 28  0  0  0  0  0  0  0  0999 V2000
    2.4218    7.4625   26.1888 C   0  0  0  0  0  0  0  0  0  0  0  0
    9.3016    9.9731   21.6737 C   0  0  0  0  0  0  0  0  0  0  0  0
    5.9852    7.0062   23.5775 C   0  0  0  0  0  0  0  0  0  0  0  0
    5.5010    9.3603   23.1924 C   0  0  0  0  0  0  0  0  0  0  0  0
    7.6480    8.4948   22.4039 C   0  0  0  0  0  0  0  0  0  0  0  0
   10.6605    8.1285   18.4326 C   0  0  0  0  0  0  0  0  0  0  0  0
    3.8477    7.9880   24.2774 C   0  0  0  0  0  0  0  0  0  0  0  0
    2.7265    8.5825   27.1841 C   0  0  0  0  0  0  0  0  0  0  0  0
    9.5092    7.5738   21.2877 C   0  0  0  0  0  0  0  0  0  0  0  0
   11.2902    9.1072   20.6028 N   0  0  0  0  0  0  0  0  0  0  0  0
    8.3117    7.3723   21.9136 N   0  0  0  0  0  0  0  0  0  0  0  0
    6.3718    8.2590   23.0791 C   0  0  0  0  0  0  0  0  0  0  0  0
    2.5804    7.9633   24.8554 O   0  0  0  0  0  0  0  0  0  0  0  0
    1.0431    6.9667   26.3617 C   0  0  0  0  0  0  0  0  0  0  0  0
   13.7535    9.7206   19.3582 N   0  0  0  0  0  0  0  0  0  0  0  0
    4.7258    6.8340   24.1446 C   0  0  0  0  0  0  0  0  0  0  0  0
   12.8128    9.1470   18.6264 C   0  0  0  0  0  0  0  0  0  0  0  0
   13.0965    8.9134   17.3103 N   0  0  0  0  0  0  0  0  0  0  0  0
   12.2247    8.2295   16.5975 C   0  0  0  0  0  0  0  0  0  0  0  0
   10.9966    7.8738   17.0832 C   0  0  0  0  0  0  0  0  0  0  0  0
    8.1315    9.7527   22.2616 N   0  0  0  0  0  0  0  0  0  0  0  0
   11.5661    8.7582   19.2397 C   0  0  0  0  0  0  0  0  0  0  0  0
   14.9667    9.8895   18.7034 O   0  0  0  0  0  0  0  0  0  0  0  0
    4.2546    9.2414   23.7910 C   0  0  0  0  0  0  0  0  0  0  0  0
    9.8028   11.4150   21.5799 C   0  0  0  0  0  0  0  0  0  0  0  0
   10.0244    8.8551   21.1690 C   0  0  0  0  0  0  0  0  0  0  0  0
  1  8  1  0
  1 13  1  0
  1 14  1  0
  2 21  1  0
  2 25  1  0
  2 26  2  0
  3 12  1  0
  3 16  2  0
  4 12  2  0
  4 24  1  0
  5 11  1  0
  5 12  1  0
  5 21  2  0
  6 20  1  0
  6 22  2  0
  7 13  1  0
  7 16  1  0
  7 24  2  0
  9 11  2  0
  9 26  1  0
 10 22  1  0
 10 26  1  0
 15 17  1  0
 15 23  1  0
 17 18  2  0
 17 22  1  0
 18 19  1  0
 19 20  2  0
M  END
$$$$
