
     RDKit          3D

 39 45  0  0  0  0  0  0  0  0999 V2000
    9.9675   12.2477   21.2646 C   0  0  0  0  0  0  0  0  0  0  0  0
    8.0681   10.7252   22.1518 C   0  0  0  0  0  0  0  0  0  0  0  0
    2.9305    6.5109   26.4123 C   0  0  0  0  0  0  0  0  0  0  0  0
   12.7085   10.6500   19.2444 N   0  0  0  0  0  0  0  0  0  0  0  0
   12.6979    9.7004   18.2715 C   0  0  0  0  0  0  0  0  0  0  0  0
    9.3738    7.8506   20.7543 C   0  0  0  0  0  0  0  0  0  0  0  0
    8.1202    8.1374   21.0959 O   0  0  0  0  0  0  0  0  0  0  0  0
    4.8203    9.3157   23.4336 C   0  0  0  0  0  0  0  0  0  0  0  0
   13.3812    9.1025   16.0136 C   0  0  0  0  0  0  0  0  0  0  0  0
    9.9581    7.0156   21.6617 C   0  0  0  0  0  0  0  0  0  0  0  0
   12.0948   10.4021   21.4589 O   0  0  0  0  0  0  0  0  0  0  0  0
    8.5267   11.8139   21.3671 C   0  0  0  0  0  0  0  0  0  0  0  0
   11.3579    7.9859   19.4455 C   0  0  0  0  0  0  0  0  0  0  0  0
    4.8849    6.9572   24.1244 C   0  0  0  0  0  0  0  0  0  0  0  0
    1.0189    7.8903   25.8075 C   0  0  0  0  0  0  0  0  0  0  0  0
    6.2492   12.1514   20.5579 C   0  0  0  0  0  0  0  0  0  0  0  0
    8.9728    6.8659   22.5062 N   0  0  0  0  0  0  0  0  0  0  0  0
   13.3965    9.9746   17.0946 C   0  0  0  0  0  0  0  0  0  0  0  0
    6.6672    7.7884   22.8337 C   0  0  0  0  0  0  0  0  0  0  0  0
    2.2167    7.0580   27.6777 C   0  0  0  0  0  0  0  0  0  0  0  0
   12.0508    8.4720   18.3198 C   0  0  0  0  0  0  0  0  0  0  0  0
    0.1856    8.1644   28.0011 C   0  0  0  0  0  0  0  0  0  0  0  0
    5.8154   11.0194   21.2663 C   0  0  0  0  0  0  0  0  0  0  0  0
    6.0752    6.7060   23.4614 C   0  0  0  0  0  0  0  0  0  0  0  0
    0.8942    7.3041   27.0962 N   0  0  0  0  0  0  0  0  0  0  0  0
    9.9866    8.3068   19.6369 C   0  0  0  0  0  0  0  0  0  0  0  0
    6.6943   10.2788   22.0682 C   0  0  0  0  0  0  0  0  0  0  0  0
    7.9343    7.5167   22.2129 N   0  0  0  0  0  0  0  0  0  0  0  0
    6.0745    9.0761   22.7739 C   0  0  0  0  0  0  0  0  0  0  0  0
   10.7461   11.6405   20.1673 N   0  0  0  0  0  0  0  0  0  0  0  0
   12.6988    7.9042   16.0915 C   0  0  0  0  0  0  0  0  0  0  0  0
    4.2386    8.2009   24.0548 C   0  0  0  0  0  0  0  0  0  0  0  0
   12.0354    7.1058   20.4354 C   0  0  0  0  0  0  0  0  0  0  0  0
   11.3074    6.6452   21.5465 C   0  0  0  0  0  0  0  0  0  0  0  0
   11.8418   10.8409   20.3467 C   0  0  0  0  0  0  0  0  0  0  0  0
    2.2885    7.2759   25.1961 C   0  0  0  0  0  0  0  0  0  0  0  0
   12.0134    7.6060   17.2595 C   0  0  0  0  0  0  0  0  0  0  0  0
    2.9967    8.3978   24.6668 O   0  0  0  0  0  0  0  0  0  0  0  0
    7.5838   12.5748   20.6426 C   0  0  0  0  0  0  0  0  0  0  0  0
  1 12  1  0
  1 30  1  0
  2 12  4  0
  2 27  4  0
  3 20  1  0
  3 36  1  0
  4  5  1  0
  4 35  1  0
  5 18  4  0
  5 21  4  0
  6  7  4  0
  6 10  4  0
  6 26  4  0
  7 28  4  0
  8 29  4  0
  8 32  4  0
  9 18  4  0
  9 31  4  0
 10 17  4  0
 10 34  4  0
 11 35  2  0
 12 39  4  0
 13 21  1  0
 13 26  4  0
 13 33  4  0
 14 24  4  0
 14 32  4  0
 15 25  1  0
 15 36  1  0
 16 23  4  0
 16 39  4  0
 17 28  4  0
 19 24  4  0
 19 28  1  0
 19 29  4  0
 20 25  1  0
 21 37  4  0
 22 25  1  0
 23 27  4  0
 27 29  1  0
 30 35  1  0
 31 37  4  0
 32 38  1  0
 33 34  4  0
 36 38  1  0
M  END
$$$$
