
     RDKit          3D

  6  5  0  0  0  0  0  0  0  0999 V2000
   16.0157  -59.4701    0.7597 O   0  0  0  0  0  0  0  0  0  0  0  0
   12.8373  -60.3581   -0.2019 O   0  0  0  0  0  0  0  0  0  0  0  0
   14.3641  -60.3164    1.8519 O   0  0  0  0  0  0  0  0  0  0  0  0
   13.5761  -61.4014   -0.9379 C   0  0  0  0  0  0  0  0  0  0  0  0
   14.9407  -61.2679   -0.2741 C   0  0  0  0  0  0  0  0  0  0  0  0
   15.0895  -60.3065    0.8357 C   0  0  0  0  0  0  0  0  0  0  0  0
  1  6  2  0
  2  4  1  0
  3  6  1  0
  4  5  1  0
  5  6  1  0
M  END
$$$$
