
     RDKit          3D

 20 21  0  0  0  0  0  0  0  0999 V2000
  -39.8552   -3.8560    6.8037 C   0  0  0  0  0  0  0  0  0  0  0  0
  -40.8447   -5.7715    8.5761 C   0  0  0  0  0  0  0  0  0  0  0  0
  -41.9932   -2.2368    7.1073 Cl  0  0  0  0  0  0  0  0  0  0  0  0
  -41.3939  -12.1082   12.6892 C   0  0  0  0  0  0  0  0  0  0  0  0
  -39.6150   -5.9837    7.9429 C   0  0  0  0  0  0  0  0  0  0  0  0
  -38.8095  -10.1377    9.1420 N   0  0  0  0  0  0  0  0  0  0  0  0
  -38.5698   -9.5133    7.9406 C   0  0  0  0  0  0  0  0  0  0  0  0
  -38.8568   -7.1298    8.2091 N   0  0  0  0  0  0  0  0  0  0  0  0
  -41.5840   -4.6147    8.3166 C   0  0  0  0  0  0  0  0  0  0  0  0
  -39.9815  -10.0425    9.8657 C   0  0  0  0  0  0  0  0  0  0  0  0
  -40.9547   -9.3798    9.5248 O   0  0  0  0  0  0  0  0  0  0  0  0
  -39.1200   -5.0149    7.0664 C   0  0  0  0  0  0  0  0  0  0  0  0
  -38.9997  -11.9708   12.9908 C   0  0  0  0  0  0  0  0  0  0  0  0
  -40.2465  -12.4335   13.4116 C   0  0  0  0  0  0  0  0  0  0  0  0
  -40.0437  -10.8726   11.1006 C   0  0  0  0  0  0  0  0  0  0  0  0
  -38.8946  -11.1875   11.8390 C   0  0  0  0  0  0  0  0  0  0  0  0
  -41.0858   -3.6627    7.4290 C   0  0  0  0  0  0  0  0  0  0  0  0
  -37.8144   -9.9640    7.0903 O   0  0  0  0  0  0  0  0  0  0  0  0
  -39.2986   -8.2241    7.6798 C   0  0  0  0  0  0  0  0  0  0  0  0
  -41.2949  -11.3250   11.5382 C   0  0  0  0  0  0  0  0  0  0  0  0
  1 12  2  0
  1 17  1  0
  2  5  2  0
  2  9  1  0
  3 17  1  0
  4 14  2  0
  4 20  1  0
  5  8  1  0
  5 12  1  0
  6  7  1  0
  6 10  1  0
  7 18  2  0
  7 19  1  0
  8 19  2  3
  9 17  2  0
 10 11  2  0
 10 15  1  0
 13 14  1  0
 13 16  2  0
 15 16  1  0
 15 20  2  0
M  END
$$$$
