
     RDKit          3D

 13 13  0  0  0  0  0  0  0  0999 V2000
    3.8543   24.3998   10.0064 C   0  0  0  0  0  0  0  0  0  0  0  0
    4.6853   22.9114   12.4146 C   0  0  0  0  0  0  0  0  0  0  0  0
    3.7025   23.4581   10.3796 C   0  0  0  0  0  0  0  0  0  0  0  0
    3.6865   22.9331    9.0171 C   0  0  0  0  0  0  0  0  0  0  0  0
    2.7224   27.1129   15.7521 O   0  0  0  0  0  0  0  0  0  0  0  0
    3.1727   25.8580   13.6248 C   0  0  0  0  0  0  0  0  0  0  0  0
    2.3431   26.6837   14.6075 C   0  0  0  0  0  0  0  0  0  0  0  0
    2.5898   22.9486    8.5430 O   0  0  0  0  0  0  0  0  0  0  0  0
    4.2902   26.1229   14.0520 O   0  0  0  0  0  0  0  0  0  0  0  0
    5.6916   23.8705   12.4751 O   0  0  0  0  0  0  0  0  0  0  0  0
    3.8485   23.0209   11.5170 C   0  0  0  0  0  0  0  0  0  0  0  0
    3.0920   25.4414   11.1584 C   0  0  0  0  0  0  0  0  0  0  0  0
    2.5793   24.9981   12.6595 C   0  0  0  0  0  0  0  0  0  0  0  0
  1  3  1  0
  1  4  1  0
  1 12  1  0
  2 10  1  0
  2 11  1  0
  3  4  1  0
  3 11  1  0
  4  8  1  0
  5  7  1  0
  6  7  1  0
  6  9  2  0
  6 13  1  0
 12 13  1  0
M  END
$$$$
