
     RDKit          3D

 10  8  0  0  0  0  0  0  0  0999 V2000
  -19.9965   14.6829  -32.3725 C   0  0  0  0  0  0  0  0  0  0  0  0
  -16.9774   16.3752  -26.3967 O   0  0  0  0  0  0  0  0  0  0  0  0
  -22.1894   15.3350  -28.5728 O   0  0  0  0  0  0  0  0  0  0  0  0
  -23.6038   15.4530  -28.6182 C   0  0  0  0  0  0  0  0  0  0  0  0
  -17.5294   15.6356  -27.4843 C   0  0  0  0  0  0  0  0  0  0  0  0
  -20.1811   15.9173  -27.4872 C   0  0  0  0  0  0  0  0  0  0  0  0
  -21.6374   16.0746  -27.4852 C   0  0  0  0  0  0  0  0  0  0  0  0
  -18.9857   15.7929  -27.4823 C   0  0  0  0  0  0  0  0  0  0  0  0
  -21.0768   14.5565  -31.4663 O   0  0  0  0  0  0  0  0  0  0  0  0
  -15.5630   16.2572  -26.3513 C   0  0  0  0  0  0  0  0  0  0  0  0
  1  9  1  0
  2  5  1  0
  2 10  1  0
  3  4  1  0
  3  7  1  0
  5  8  1  0
  6  7  1  0
  6  8  3  0
M  END
$$$$
