
     RDKit          3D

 12 13  0  0  0  0  0  0  0  0999 V2000
   -1.8880   35.4911  -10.4849 O   0  0  0  0  0  0  0  0  0  0  0  0
   -0.6220   30.5472  -13.5548 O   0  0  0  0  0  0  0  0  0  0  0  0
    0.4722   34.0505  -11.0549 C   0  0  0  0  0  0  0  0  0  0  0  0
    1.6404   31.5673  -11.1675 C   0  0  0  0  0  0  0  0  0  0  0  0
   -0.2290   31.0243  -12.4973 C   0  0  0  0  0  0  0  0  0  0  0  0
    0.3403   32.4584  -10.9854 C   0  0  0  0  0  0  0  0  0  0  0  0
    1.4641   29.3416  -12.3884 N   0  0  0  0  0  0  0  0  0  0  0  0
    0.8428   30.3796  -11.6551 C   0  0  0  0  0  0  0  0  0  0  0  0
   -1.2249   33.3448  -12.4817 C   0  0  0  0  0  0  0  0  0  0  0  0
   -1.1300   35.5972  -11.5473 C   0  0  0  0  0  0  0  0  0  0  0  0
   -0.3869   34.4992  -12.1256 C   0  0  0  0  0  0  0  0  0  0  0  0
   -0.3716   32.2696  -12.0133 N   0  0  0  0  0  0  0  0  0  0  0  0
  1 10  1  0
  2  5  2  0
  3  6  1  0
  3 11  1  0
  4  6  1  0
  4  8  1  0
  5  8  1  0
  5 12  1  0
  6 12  1  0
  7  8  1  0
  9 11  1  0
  9 12  1  0
 10 11  1  0
M  END
$$$$
