
     RDKit          3D

 17 18  0  0  0  0  0  0  0  0999 V2000
   -1.2345   31.5873  -11.5539 C   0  0  0  0  0  0  0  0  0  0  0  0
   -1.1989   36.6190  -11.2182 N   0  0  0  0  0  0  0  0  0  0  0  0
    2.4131   32.0693  -11.9271 O   0  0  0  0  0  0  0  0  0  0  0  0
   -0.8289   29.8872  -13.3981 C   0  0  0  0  0  0  0  0  0  0  0  0
   -1.1151   34.6265  -12.4942 C   0  0  0  0  0  0  0  0  0  0  0  0
   -0.5848   35.9625  -10.2389 C   0  0  0  0  0  0  0  0  0  0  0  0
   -0.4092   33.8707  -11.4562 C   0  0  0  0  0  0  0  0  0  0  0  0
   -2.1984   36.5610  -13.2833 N   0  0  0  0  0  0  0  0  0  0  0  0
   -0.3509   30.3639  -11.9369 C   0  0  0  0  0  0  0  0  0  0  0  0
    1.0662   30.5091  -11.9508 C   0  0  0  0  0  0  0  0  0  0  0  0
   -1.4788   35.9289  -12.3394 C   0  0  0  0  0  0  0  0  0  0  0  0
   -1.7027   30.7557  -13.8777 O   0  0  0  0  0  0  0  0  0  0  0  0
   -0.0113   29.5804  -10.8516 O   0  0  0  0  0  0  0  0  0  0  0  0
   -0.0926   32.5479  -11.5583 N   0  0  0  0  0  0  0  0  0  0  0  0
   -0.1407   34.6423  -10.3458 C   0  0  0  0  0  0  0  0  0  0  0  0
    1.0712   32.1020  -12.3513 C   0  0  0  0  0  0  0  0  0  0  0  0
    1.7638   29.8907  -12.8906 O   0  0  0  0  0  0  0  0  0  0  0  0
  1  9  1  0
  1 14  1  0
  2  6  1  0
  2 11  2  0
  3 16  1  0
  4  9  1  0
  4 12  1  0
  5  7  2  0
  5 11  1  0
  6 15  2  0
  7 14  1  0
  7 15  1  0
  8 11  1  0
  9 10  1  0
  9 13  1  0
 10 16  1  0
 10 17  1  0
 14 16  1  0
M  END
$$$$
