
     RDKit          3D

 12 12  0  0  0  0  0  0  0  0999 V2000
    1.3544   29.6477  -11.2586 O   0  0  0  0  0  0  0  0  0  0  0  0
   -0.3013   33.4058  -11.5061 C   0  0  0  0  0  0  0  0  0  0  0  0
   -0.4135   32.5084  -12.7083 C   0  0  0  0  0  0  0  0  0  0  0  0
   -0.2000   31.1017  -12.2847 C   0  0  0  0  0  0  0  0  0  0  0  0
    0.8804   31.7574  -10.2925 C   0  0  0  0  0  0  0  0  0  0  0  0
   -1.4642   35.4898  -12.1544 C   0  0  0  0  0  0  0  0  0  0  0  0
    0.8068   33.0701  -10.7005 O   0  0  0  0  0  0  0  0  0  0  0  0
   -0.0890   34.8633  -11.8962 C   0  0  0  0  0  0  0  0  0  0  0  0
   -1.5829   36.6812  -11.1682 C   0  0  0  0  0  0  0  0  0  0  0  0
   -0.4649   28.9624  -13.1759 O   0  0  0  0  0  0  0  0  0  0  0  0
    1.0722   30.9867  -11.5448 C   0  0  0  0  0  0  0  0  0  0  0  0
   -0.1553   30.1317  -13.3920 C   0  0  0  0  0  0  0  0  0  0  0  0
  1 11  1  0
  2  3  1  0
  2  7  1  0
  2  8  1  0
  3  4  1  0
  4 11  1  0
  4 12  1  0
  5  7  1  0
  5 11  1  0
  6  8  1  0
  6  9  1  0
 10 12  2  0
M  END
$$$$
