
     RDKit          3D

 14 15  0  0  0  0  0  0  0  0999 V2000
    2.4551   31.5931  -11.5914 O   0  0  0  0  0  0  0  0  0  0  0  0
    0.3962   32.5375  -11.2945 C   0  0  0  0  0  0  0  0  0  0  0  0
   -2.4102   36.4198  -11.8482 C   0  0  0  0  0  0  0  0  0  0  0  0
    0.7768   30.3003  -12.5384 C   0  0  0  0  0  0  0  0  0  0  0  0
    0.6899   33.9896  -11.1385 C   0  0  0  0  0  0  0  0  0  0  0  0
   -1.5794   31.1255  -11.9770 C   0  0  0  0  0  0  0  0  0  0  0  0
   -0.3778   34.6708  -11.9534 C   0  0  0  0  0  0  0  0  0  0  0  0
   -1.1148   33.5247  -12.7248 C   0  0  0  0  0  0  0  0  0  0  0  0
   -0.7137   30.2128  -12.8486 C   0  0  0  0  0  0  0  0  0  0  0  0
   -1.0061   30.4092  -14.1949 O   0  0  0  0  0  0  0  0  0  0  0  0
    1.1215   29.4203  -11.4643 O   0  0  0  0  0  0  0  0  0  0  0  0
    1.2331   31.7322  -12.2601 C   0  0  0  0  0  0  0  0  0  0  0  0
   -1.0202   32.4744  -11.7121 N   0  0  0  0  0  0  0  0  0  0  0  0
   -1.2829   35.6132  -11.1074 C   0  0  0  0  0  0  0  0  0  0  0  0
  1 12  1  0
  2  5  1  0
  2 12  1  0
  2 13  1  0
  3 14  1  0
  4  9  1  0
  4 11  1  0
  4 12  1  0
  5  7  1  0
  6  9  1  0
  6 13  1  0
  7  8  1  0
  7 14  1  0
  8 13  1  0
  9 10  1  0
M  END
$$$$
