
     RDKit          3D

 14 14  0  0  0  0  0  0  0  0999 V2000
   -1.5997   36.5438  -10.4574 C   0  0  0  0  0  0  0  0  0  0  0  0
   -0.7181   34.5338  -11.5504 C   0  0  0  0  0  0  0  0  0  0  0  0
    0.5783   32.7204  -10.7004 C   0  0  0  0  0  0  0  0  0  0  0  0
    1.3323   30.5265  -12.1696 C   0  0  0  0  0  0  0  0  0  0  0  0
    0.0188   31.0558  -12.5404 C   0  0  0  0  0  0  0  0  0  0  0  0
   -0.7927   30.1747  -11.9739 O   0  0  0  0  0  0  0  0  0  0  0  0
    2.3926   31.4553  -12.1422 O   0  0  0  0  0  0  0  0  0  0  0  0
   -1.6620   36.1722  -12.9152 C   0  0  0  0  0  0  0  0  0  0  0  0
   -0.1261   32.3892  -11.9329 C   0  0  0  0  0  0  0  0  0  0  0  0
    1.4110   29.3000  -12.0776 O   0  0  0  0  0  0  0  0  0  0  0  0
   -1.3068   35.7354  -11.5943 N   0  0  0  0  0  0  0  0  0  0  0  0
   -1.7902   29.7245  -12.8931 C   0  0  0  0  0  0  0  0  0  0  0  0
   -0.9472   33.4581  -12.3516 N   0  0  0  0  0  0  0  0  0  0  0  0
    0.3323   34.1750  -10.6001 C   0  0  0  0  0  0  0  0  0  0  0  0
  1 11  1  0
  2 11  1  0
  2 13  1  0
  2 14  1  0
  3  9  1  0
  3 14  1  0
  4  5  1  0
  4  7  2  0
  4 10  1  0
  5  6  1  0
  5  9  1  0
  6 12  1  0
  8 11  1  0
  9 13  1  0
M  END
$$$$
