
     RDKit          3D

 13 14  0  0  0  0  0  0  0  0999 V2000
   -1.4360   -1.5121   -1.2751 C   0  0  0  0  0  0  0  0  0  0  0  0
   -0.9787   -0.4505   -0.5113 C   0  0  0  0  0  0  0  0  0  0  0  0
   -2.1079    0.3213   -0.3008 C   0  0  0  0  0  0  0  0  0  0  0  0
    2.2794    1.2721    0.3728 C   0  0  0  0  0  0  0  0  0  0  0  0
   -2.2146    1.4787    0.5294 N   0  0  0  0  0  0  0  0  0  0  0  0
   -2.7573   -1.3663   -1.5068 N   0  0  0  0  0  0  0  0  0  0  0  0
    4.7175    0.4416    1.2971 Cl  0  0  0  0  0  0  0  0  0  0  0  0
    0.9604    1.0699   -0.0450 C   0  0  0  0  0  0  0  0  0  0  0  0
    0.4089   -0.2230   -0.0551 C   0  0  0  0  0  0  0  0  0  0  0  0
   -3.1567   -0.2532   -0.9124 N   0  0  0  0  0  0  0  0  0  0  0  0
    3.0626    0.1858    0.7746 C   0  0  0  0  0  0  0  0  0  0  0  0
    1.2091   -1.3112    0.3329 C   0  0  0  0  0  0  0  0  0  0  0  0
    2.5275   -1.1056    0.7512 C   0  0  0  0  0  0  0  0  0  0  0  0
  1  2  1  0
  1  6  2  0
  2  3  2  0
  2  9  1  0
  3  5  1  0
  3 10  1  0
  4  8  2  0
  4 11  1  0
  6 10  1  0
  7 11  1  0
  8  9  1  0
  9 12  2  0
 11 13  2  0
 12 13  1  0
M  END
