
     RDKit          3D

 14 14  0  0  0  0  0  0  0  0999 V2000
    2.2248   -0.4847   -0.1926 C   0  0  0  0  0  0  0  0  0  0  0  0
    3.6621   -0.8246    0.2068 C   0  0  0  0  0  0  0  0  0  0  0  0
   -0.0938    0.9347   -1.2767 N   0  0  0  0  0  0  0  0  0  0  0  0
   -4.5180    2.7461    1.2736 Cl  0  0  0  0  0  0  0  0  0  0  0  0
   -3.8525    1.2086    0.7533 C   0  0  0  0  0  0  0  0  0  0  0  0
   -4.5574    0.0252    0.9938 C   0  0  0  0  0  0  0  0  0  0  0  0
   -2.7937   -1.2460   -0.0739 C   0  0  0  0  0  0  0  0  0  0  0  0
   -2.0767   -0.0641   -0.3221 C   0  0  0  0  0  0  0  0  0  0  0  0
    1.1869    0.9234   -1.9210 C   0  0  0  0  0  0  0  0  0  0  0  0
   -2.6162    1.1666    0.0981 C   0  0  0  0  0  0  0  0  0  0  0  0
   -0.7738   -0.1388   -1.0126 C   0  0  0  0  0  0  0  0  0  0  0  0
    4.4558    0.4195    0.6021 C   0  0  0  0  0  0  0  0  0  0  0  0
    2.2174    0.3024   -1.4244 N   0  0  0  0  0  0  0  0  0  0  0  0
   -4.0281   -1.1997    0.5807 C   0  0  0  0  0  0  0  0  0  0  0  0
  1  2  1  0
  1 13  1  0
  2 12  1  0
  3  9  1  0
  3 11  2  3
  4  5  1  0
  5  6  1  0
  5 10  2  0
  6 14  2  0
  7  8  2  0
  7 14  1  0
  8 10  1  0
  8 11  1  0
  9 13  2  3
M  END
