
     RDKit          3D

 29 32  0  0  0  0  0  0  0  0999 V2000
   -4.6378   -1.3782    1.6257 C   0  0  0  0  0  0  0  0  0  0  0  0
   -2.6294   -5.8498    1.6507 O   0  0  0  0  0  0  0  0  0  0  0  0
    1.4656   -0.3781   -1.7108 C   0  0  0  0  0  0  0  0  0  0  0  0
    2.0435   -1.8618    0.2221 C   0  0  0  0  0  0  0  0  0  0  0  0
   -1.3375    3.5244   -2.7458 C   0  0  0  0  0  0  0  0  0  0  0  0
   -2.6543   -4.5669    1.2163 N   0  0  0  0  0  0  0  0  0  0  0  0
    2.6121    0.5976   -1.4101 C   0  0  0  0  0  0  0  0  0  0  0  0
    3.5899    0.0761   -0.3821 C   0  0  0  0  0  0  0  0  0  0  0  0
   -4.6072   -0.0236    1.2947 C   0  0  0  0  0  0  0  0  0  0  0  0
    5.6974    0.3630    0.7968 C   0  0  0  0  0  0  0  0  0  0  0  0
    0.9123   -1.0549   -0.4403 C   0  0  1  0  0  0  0  0  0  0  0  0
    0.2623   -0.0688    0.5685 C   0  0  0  0  0  0  0  0  0  0  0  0
   -2.3154   -1.5885    0.9669 C   0  0  0  0  0  0  0  0  0  0  0  0
    3.2912   -1.0393    0.4383 C   0  0  0  0  0  0  0  0  0  0  0  0
   -1.9212    1.2918   -2.0148 C   0  0  0  0  0  0  0  0  0  0  0  0
   -3.4384    0.5517    0.7961 C   0  0  0  0  0  0  0  0  0  0  0  0
    5.4142   -0.7510    1.5874 C   0  0  0  0  0  0  0  0  0  0  0  0
    4.7900    0.7770   -0.1806 C   0  0  0  0  0  0  0  0  0  0  0  0
   -0.5632    3.7079   -1.5906 C   0  0  0  0  0  0  0  0  0  0  0  0
    0.1244    5.0174   -1.3413 C   0  0  0  0  0  0  0  0  0  0  0  0
   -2.2758   -0.2219    0.6219 C   0  0  0  0  0  0  0  0  0  0  0  0
   -0.4929    2.6821   -0.6353 C   0  0  0  0  0  0  0  0  0  0  0  0
    4.2207   -1.4529    1.4064 C   0  0  0  0  0  0  0  0  0  0  0  0
   -1.0633    0.3906    0.1134 N   0  0  0  0  0  0  0  0  0  0  0  0
   -3.4958   -2.1783    1.4568 C   0  0  0  0  0  0  0  0  0  0  0  0
   -4.3919   -4.0183    2.6588 O   0  0  0  0  0  0  0  0  0  0  0  0
   -1.1559    1.4614   -0.8494 C   0  0  0  0  0  0  0  0  0  0  0  0
   -2.0109    2.3191   -2.9564 C   0  0  0  0  0  0  0  0  0  0  0  0
   -3.5425   -3.6165    1.8177 C   0  0  0  0  0  0  0  0  0  0  0  0
  1  9  2  0
  1 25  1  0
  2  6  1  0
  3  7  1  0
  3 11  1  0
  4 11  1  0
  4 14  1  0
  5 19  1  0
  5 28  2  0
  6 29  1  0
  7  8  1  0
  8 14  1  0
  8 18  2  0
  9 16  1  0
 10 17  2  0
 10 18  1  0
 11 12  1  1
 12 24  1  0
 13 21  1  0
 13 25  2  0
 14 23  2  0
 15 27  2  0
 15 28  1  0
 16 21  2  0
 17 23  1  0
 19 20  1  0
 19 22  2  0
 21 24  1  0
 22 27  1  0
 24 27  1  0
 25 29  1  0
 26 29  2  0
M  END
