
     RDKit          3D

 18 20  0  0  0  0  0  0  0  0999 V2000
   30.8792   14.4340   19.8330 O   0  0  0  0  0  0  0  0  0  0  0  0
   24.9439   14.3600   21.3142 N   0  0  0  0  0  0  0  0  0  0  0  0
   28.1889   15.9673   22.9277 N   0  0  0  0  0  0  0  0  0  0  0  0
   29.7032   14.5417   20.2590 C   0  0  0  0  0  0  0  0  0  0  0  0
   28.7392   13.9262   19.5416 C   0  0  0  0  0  0  0  0  0  0  0  0
   25.9120   15.6324   22.7998 C   0  0  0  0  0  0  0  0  0  0  0  0
   26.5017   13.3621   18.9682 C   0  0  0  0  0  0  0  0  0  0  0  0
   29.1569   13.4075   18.4786 O   0  0  0  0  0  0  0  0  0  0  0  0
   25.2354   13.2831   19.1598 C   0  0  0  0  0  0  0  0  0  0  0  0
   26.0292   14.9002   21.7966 C   0  0  0  0  0  0  0  0  0  0  0  0
   28.2478   15.1933   21.8511 C   0  0  0  0  0  0  0  0  0  0  0  0
   24.5310   12.8349   18.2614 O   0  0  0  0  0  0  0  0  0  0  0  0
   27.0080   16.1380   23.3886 C   0  0  0  0  0  0  0  0  0  0  0  0
   27.1688   14.6307   21.1390 C   0  0  0  0  0  0  0  0  0  0  0  0
   24.5503   13.7433   20.3457 C   0  0  0  0  0  0  0  0  0  0  0  0
   27.4700   13.9580   19.9298 C   0  0  0  0  0  0  0  0  0  0  0  0
   29.5085   15.1865   21.3586 N   0  0  0  0  0  0  0  0  0  0  0  0
   23.4010   13.5164   20.4325 O   0  0  0  0  0  0  0  0  0  0  0  0
  1  4  2  0
  2 10  4  0
  2 15  4  0
  3 11  4  0
  3 13  4  0
  4  5  4  0
  4 17  4  0
  5  8  1  0
  5 16  4  0
  6 10  4  0
  6 13  4  0
  7  9  4  0
  7 16  4  0
  9 12  2  0
  9 15  4  0
 10 14  4  0
 11 14  4  0
 11 17  4  0
 14 16  4  0
 15 18  2  0
M  END
$$$$
