
     RDKit          3D

 12 12  0  0  0  0  0  0  0  0999 V2000
   27.3353   13.6441   18.8806 C   0  0  0  0  0  0  0  0  0  0  0  0
   26.0909   15.0133   22.1016 N   0  0  0  0  0  0  0  0  0  0  0  0
   29.2771   15.6476   21.1906 O   0  0  0  0  0  0  0  0  0  0  0  0
   24.9027   13.9804   20.2939 C   0  0  0  0  0  0  0  0  0  0  0  0
   23.6418   14.1316   20.8654 O   0  0  0  0  0  0  0  0  0  0  0  0
   27.4015   14.2088   20.2137 C   0  0  0  0  0  0  0  0  0  0  0  0
   29.6660   13.6970   20.3093 O   0  0  0  0  0  0  0  0  0  0  0  0
   26.1252   13.2452   18.3118 C   0  0  0  0  0  0  0  0  0  0  0  0
   26.1738   14.4112   20.8902 C   0  0  0  0  0  0  0  0  0  0  0  0
   24.9202   13.4149   19.0177 C   0  0  0  0  0  0  0  0  0  0  0  0
   26.9370   15.5422   22.9920 O   0  0  0  0  0  0  0  0  0  0  0  0
   28.8434   14.5287   20.5547 C   0  0  0  0  0  0  0  0  0  0  0  0
  1  6  2  0
  1  8  1  0
  2  9  2  3
  2 11  1  0
  3 12  1  0
  4  5  1  0
  4  9  1  0
  4 10  1  0
  6  9  1  0
  6 12  1  0
  7 12  2  0
  8 10  2  0
M  END
$$$$
