
     RDKit          3D

 28 30  0  0  0  0  0  0  0  0999 V2000
    4.4008    1.8497    1.3103 O   0  0  0  0  0  0  0  0  0  0  0  0
    1.6110    1.7854   -3.6324 O   0  0  0  0  0  0  0  0  0  0  0  0
   -0.9036    0.3626   -1.4027 C   0  0  2  0  0  0  0  0  0  0  0  0
    1.8897   -1.5144    1.9675 P   0  0  2  0  0  0  0  0  0  0  0  0
    1.0456    1.5183   -2.3697 C   0  0  1  0  0  0  0  0  0  0  0  0
    1.5738   -2.2002    0.3013 C   0  0  0  0  0  0  0  0  0  0  0  0
    4.0252    0.2416    1.6763 P   0  0  1  0  0  0  0  0  0  0  0  0
    0.6132   -1.6147    2.7723 O   0  0  0  0  0  0  0  0  0  0  0  0
   -0.4965    1.5088   -2.3583 C   0  0  1  0  0  0  0  0  0  0  0  0
   -2.8000    1.9275    1.3609 N   0  0  0  0  0  0  0  0  0  0  0  0
   -5.3475   -0.6667    0.9978 N   0  0  0  0  0  0  0  0  0  0  0  0
   -4.7750    0.4478    1.5438 C   0  0  0  0  0  0  0  0  0  0  0  0
   -1.8675    0.8076   -0.3875 N   0  0  0  0  0  0  0  0  0  0  0  0
    0.2960   -1.6416   -0.3462 C   0  0  0  0  0  0  0  0  0  0  0  0
   -3.5795   -0.8897   -0.5771 N   0  0  0  0  0  0  0  0  0  0  0  0
   -4.7611   -1.3312   -0.0498 C   0  0  0  0  0  0  0  0  0  0  0  0
    4.7264   -0.1330    2.9629 O   0  0  0  0  0  0  0  0  0  0  0  0
    2.3362    0.1294    1.8770 O   0  0  0  0  0  0  0  0  0  0  0  0
   -5.3954    1.1208    2.6394 N   0  0  0  0  0  0  0  0  0  0  0  0
    1.6563   -0.8238   -2.7372 O   0  0  0  0  0  0  0  0  0  0  0  0
   -3.0181    0.2195   -0.0374 C   0  0  0  0  0  0  0  0  0  0  0  0
    1.4991    0.1826   -1.7623 C   0  0  2  0  0  0  0  0  0  0  0  0
    0.3922   -0.1518   -0.7516 C   0  0  1  0  0  0  0  0  0  0  0  0
    3.0756   -2.4526    2.7337 O   0  0  0  0  0  0  0  0  0  0  0  0
    4.6063   -0.7717    0.3673 N   0  0  0  0  0  0  0  0  0  0  0  0
   -1.0148    1.2792   -3.6439 O   0  0  0  0  0  0  0  0  0  0  0  0
   -1.7571    1.8423    0.4896 C   0  0  0  0  0  0  0  0  0  0  0  0
   -3.5751    0.8889    0.9975 C   0  0  0  0  0  0  0  0  0  0  0  0
  1  7  1  0
  5  2  1  6
  3  9  1  0
  3 13  1  1
  3 23  1  0
  4  6  1  0
  4  8  2  0
  4 18  1  0
  4 24  1  1
  5  9  1  0
  5 22  1  0
  6 14  1  0
  7 17  2  0
  7 18  1  0
  7 25  1  6
  9 26  1  6
 10 27  2  0
 10 28  1  0
 11 12  1  0
 11 16  2  0
 12 19  1  0
 12 28  2  0
 13 21  1  0
 13 27  1  0
 23 14  1  6
 15 16  1  0
 15 21  2  0
 22 20  1  6
 21 28  1  0
 22 23  1  0
M  END
