
     RDKit          3D

 25 27  0  0  0  0  0  0  0  0999 V2000
    0.9849   -1.3328   -3.4880 O   0  0  0  0  0  0  0  0  0  0  0  0
    5.3121    0.9964    1.6824 C   0  0  0  0  0  0  0  0  0  0  0  0
   -5.7169    0.2592    0.8535 N   0  0  0  0  0  0  0  0  0  0  0  0
   -4.9485    1.3825    0.7280 C   0  0  0  0  0  0  0  0  0  0  0  0
   -1.0139   -2.6141   -2.3182 O   0  0  0  0  0  0  0  0  0  0  0  0
   -1.8109    0.0443   -0.0871 N   0  0  0  0  0  0  0  0  0  0  0  0
    1.2545   -0.8002   -1.1481 C   0  0  1  0  0  0  0  0  0  0  0  0
   -1.5634    1.3807   -0.1134 C   0  0  0  0  0  0  0  0  0  0  0  0
   -3.1089   -0.0323    0.2295 C   0  0  0  0  0  0  0  0  0  0  0  0
   -2.6528    2.1380    0.1942 N   0  0  0  0  0  0  0  0  0  0  0  0
    0.4017   -0.7492   -0.0254 O   0  0  0  0  0  0  0  0  0  0  0  0
    0.4078   -0.6499   -2.4051 C   0  0  2  0  0  0  0  0  0  0  0  0
    3.0992    0.0663    0.1087 O   0  0  0  0  0  0  0  0  0  0  0  0
   -6.0248   -2.1427    0.8016 N   0  0  0  0  0  0  0  0  0  0  0  0
    3.5891    2.6438    0.3886 O   0  0  0  0  0  0  0  0  0  0  0  0
   -3.8688   -1.1481    0.3456 N   0  0  0  0  0  0  0  0  0  0  0  0
    2.3225    0.2917   -1.0440 C   0  0  0  0  0  0  0  0  0  0  0  0
    4.2689    1.3030    0.2226 P   0  0  1  0  0  0  0  0  0  0  0  0
   -5.1904   -0.9951    0.6655 C   0  0  0  0  0  0  0  0  0  0  0  0
   -5.5183    2.6776    0.9180 N   0  0  0  0  0  0  0  0  0  0  0  0
   -3.6074    1.2122    0.4055 C   0  0  0  0  0  0  0  0  0  0  0  0
   -0.9101   -1.0489   -0.4599 C   0  0  2  0  0  0  0  0  0  0  0  0
    5.9926   -0.3633    1.5906 C   0  0  0  0  0  0  0  0  0  0  0  0
   -0.9134   -1.2490   -1.9805 C   0  0  2  0  0  0  0  0  0  0  0  0
    5.2375    1.3343   -1.1666 O   0  0  0  0  0  0  0  0  0  0  0  0
 12  1  1  6
  2 18  1  0
  2 23  1  0
  3  4  1  0
  3 19  2  0
  4 20  1  0
  4 21  2  0
 24  5  1  1
  6  8  1  0
  6  9  1  0
 22  6  1  6
  7 11  1  0
  7 12  1  0
  7 17  1  1
  8 10  2  0
  9 16  2  0
  9 21  1  0
 10 21  1  0
 11 22  1  0
 12 24  1  0
 13 17  1  0
 13 18  1  0
 14 19  1  0
 15 18  2  0
 16 19  1  0
 18 25  1  6
 22 24  1  0
M  END
