
     RDKit          3D

 27 29  0  0  0  0  0  0  0  0999 V2000
    5.5310    0.2676   -1.4144 O   0  0  0  0  0  0  0  0  0  0  0  0
   -3.5005    0.5380   -2.9442 N   0  0  0  0  0  0  0  0  0  0  0  0
   -1.6608    0.6600    0.6402 N   0  0  0  0  0  0  0  0  0  0  0  0
    3.9700    1.2868    0.4669 O   0  0  0  0  0  0  0  0  0  0  0  0
    3.1304   -0.9668   -0.6111 O   0  0  0  0  0  0  0  0  0  0  0  0
   -1.5308   -1.5506    1.7748 C   0  0  2  0  0  0  0  0  0  0  0  0
   -2.3549   -1.3843    2.8986 O   0  0  0  0  0  0  0  0  0  0  0  0
    6.3895    2.4172   -0.2136 O   0  0  0  0  0  0  0  0  0  0  0  0
   -4.2847    2.8028   -2.5612 N   0  0  0  0  0  0  0  0  0  0  0  0
    2.6555    0.3937   -0.1451 P   0  0  1  0  0  0  0  0  0  0  0  0
   -2.8088   -0.5829   -2.5608 C   0  0  0  0  0  0  0  0  0  0  0  0
   -2.7963    2.5360    0.0323 N   0  0  0  0  0  0  0  0  0  0  0  0
    0.7737   -2.9188   -0.0325 O   0  0  0  0  0  0  0  0  0  0  0  0
   -3.5630    1.6439   -2.1438 C   0  0  0  0  0  0  0  0  0  0  0  0
   -0.3925   -2.5209    2.0612 C   0  0  2  0  0  0  0  0  0  0  0  0
    0.7493   -2.1062    1.1155 C   0  0  2  0  0  0  0  0  0  0  0  0
   -2.2259    0.4773   -0.5642 C   0  0  0  0  0  0  0  0  0  0  0  0
    1.5207    0.2060    1.1181 O   0  0  0  0  0  0  0  0  0  0  0  0
    0.4691   -0.6459    0.7026 C   0  0  2  0  0  0  0  0  0  0  0  0
    1.9218    1.2303   -1.4253 O   0  0  0  0  0  0  0  0  0  0  0  0
    5.0530    1.5730   -0.8165 P   0  0  0  0  0  0  0  0  0  0  0  0
   -2.9002    1.5938   -0.9226 C   0  0  0  0  0  0  0  0  0  0  0  0
   -2.1603   -0.6198   -1.3581 N   0  0  0  0  0  0  0  0  0  0  0  0
   -2.0273    1.9249    0.9751 C   0  0  0  0  0  0  0  0  0  0  0  0
    4.3174    2.5148   -2.0156 O   0  0  0  0  0  0  0  0  0  0  0  0
   -0.8196   -0.2459    1.4356 C   0  0  1  0  0  0  0  0  0  0  0  0
   -0.8098   -3.8448    1.8490 O   0  0  0  0  0  0  0  0  0  0  0  0
  1 21  2  0
  2 11  2  0
  2 14  1  0
  3 17  1  0
  3 24  1  0
 26  3  1  6
  4 10  1  0
  4 21  1  0
  5 10  2  0
  6  7  1  1
  6 15  1  0
  6 26  1  0
  8 21  1  0
  9 14  1  0
 10 18  1  0
 10 20  1  6
 11 23  1  0
 12 22  1  0
 12 24  2  0
 16 13  1  6
 14 22  2  0
 15 16  1  0
 15 27  1  6
 16 19  1  0
 17 22  1  0
 17 23  2  0
 19 18  1  1
 19 26  1  0
 21 25  1  0
M  END
