
     RDKit          3D

 23 26  0  0  0  0  0  0  0  0999 V2000
    1.9467   -2.7206   -0.2608 O   0  0  0  0  0  0  0  0  0  0  0  0
   -2.4426    1.3963    0.7949 C   0  0  0  0  0  0  0  0  0  0  0  0
    1.0419    1.4061   -0.8952 C   0  0  1  0  0  0  0  0  0  0  0  0
   -3.4793    2.7437   -0.4744 C   0  0  0  0  0  0  0  0  0  0  0  0
    2.1627   -2.1806   -2.5702 C   0  0  0  0  0  0  0  0  0  0  0  0
   -2.3114    2.0556   -0.3631 N   0  0  0  0  0  0  0  0  0  0  0  0
   -4.3313    2.5443    0.5720 N   0  0  0  0  0  0  0  0  0  0  0  0
   -3.6399    1.6910    1.3474 C   0  0  0  0  0  0  0  0  0  0  0  0
    1.9466   -1.0522    1.7983 O   0  0  0  0  0  0  0  0  0  0  0  0
   -1.2019    2.0232   -1.3163 C   0  0  2  0  0  0  0  0  0  0  0  0
    0.3163    0.3620   -1.7274 C   0  0  1  0  0  0  0  0  0  0  0  0
    1.1476    2.6500   -1.5452 O   0  0  0  0  0  0  0  0  0  0  0  0
    2.6991   -2.2146    1.1886 P   0  0  0  0  0  0  0  0  0  0  0  0
   -4.0301    1.1588    2.5303 N   0  0  0  0  0  0  0  0  0  0  0  0
    0.4324   -1.0411   -1.1049 C   0  0  0  0  0  0  0  0  0  0  0  0
    2.7072   -3.5048    2.2829 O   0  0  0  0  0  0  0  0  0  0  0  0
   -3.1712    0.3029    3.1653 C   0  0  0  0  0  0  0  0  0  0  0  0
    1.8580   -1.6392   -1.1703 C   0  0  1  0  0  0  0  0  0  0  0  0
   -1.0484    0.7137   -1.8192 O   0  0  0  0  0  0  0  0  0  0  0  0
   -1.5600    0.5569    1.3878 N   0  0  0  0  0  0  0  0  0  0  0  0
    0.0814    2.4641   -0.6458 C   0  0  2  0  0  0  0  0  0  0  0  0
   -1.9146   -0.0031    2.5839 C   0  0  0  0  0  0  0  0  0  0  0  0
    4.2957   -1.7509    0.8705 O   0  0  0  0  0  0  0  0  0  0  0  0
  1 13  1  0
  1 18  1  0
  2  6  1  0
  2  8  1  0
  2 20  2  0
  3 11  1  0
  3 12  1  6
  3 21  1  0
  4  6  1  0
  4  7  2  0
 18  5  1  6
 10  6  1  1
  7  8  1  0
  8 14  2  0
  9 13  2  0
 10 19  1  0
 10 21  1  0
 11 15  1  1
 11 19  1  0
 21 12  1  6
 13 16  1  0
 13 23  1  0
 14 17  1  0
 15 18  1  0
 17 22  2  0
 20 22  1  0
M  END
