
     RDKit          3D

 30 32  0  0  0  0  0  0  0  0999 V2000
   -4.2052   -1.0339    0.7106 O   0  0  0  0  0  0  0  0  0  0  0  0
    2.3518    1.1754    0.1250 N   0  0  0  0  0  0  0  0  0  0  0  0
   -2.8019   -1.9806    0.5068 P   0  0  1  0  0  0  0  0  0  0  0  0
    1.1406    0.4687   -0.3150 C   0  0  1  0  0  0  0  0  0  0  0  0
    0.7742   -2.7772   -0.2205 C   0  0  0  0  0  0  0  0  0  0  0  0
    4.0776   -0.1379   -0.9445 N   0  0  0  0  0  0  0  0  0  0  0  0
   -2.4149    1.5679   -0.2737 N   0  0  0  0  0  0  0  0  0  0  0  0
   -5.6178   -2.2044   -1.1793 O   0  0  0  0  0  0  0  0  0  0  0  0
   -3.8546   -0.4484   -2.0069 O   0  0  0  0  0  0  0  0  0  0  0  0
   -3.0767   -3.1770   -0.3790 O   0  0  0  0  0  0  0  0  0  0  0  0
    0.5440   -0.3696    0.8364 C   0  0  2  0  0  0  0  0  0  0  0  0
    6.7424    2.3870    1.1070 N   0  0  0  0  0  0  0  0  0  0  0  0
    3.6242    0.8610   -0.1485 C   0  0  0  0  0  0  0  0  0  0  0  0
   -4.9661   -0.8911   -0.8071 P   0  0  2  0  0  0  0  0  0  0  0  0
    0.0289    1.4500   -0.7504 C   0  0  1  0  0  0  0  0  0  0  0  0
   -5.6979    1.6171   -0.3608 O   0  0  0  0  0  0  0  0  0  0  0  0
   -6.2618    0.3804   -0.6947 C   0  0  0  0  0  0  0  0  0  0  0  0
   -1.5554   -1.0444   -0.1988 O   0  0  0  0  0  0  0  0  0  0  0  0
    4.4535    1.6893    0.5259 C   0  0  0  0  0  0  0  0  0  0  0  0
    1.0831   -1.8200    0.9462 C   0  0  0  0  0  0  0  0  0  0  0  0
    5.8306    1.5387    0.4090 C   0  0  0  0  0  0  0  0  0  0  0  0
    6.2916    0.5374   -0.3990 N   0  0  0  0  0  0  0  0  0  0  0  0
   -0.4347    1.1149   -2.0351 O   0  0  0  0  0  0  0  0  0  0  0  0
    2.4601    2.2090    1.0039 C   0  0  0  0  0  0  0  0  0  0  0  0
   -1.0945    1.2721    0.2804 C   0  0  2  0  0  0  0  0  0  0  0  0
    1.6915   -3.8375   -0.2278 O   0  0  0  0  0  0  0  0  0  0  0  0
   -0.9790   -0.1763    0.7634 C   0  0  2  0  0  0  0  0  0  0  0  0
    5.4301   -0.2938   -1.0695 C   0  0  0  0  0  0  0  0  0  0  0  0
   -2.3064   -2.5583    2.0202 O   0  0  0  0  0  0  0  0  0  0  0  0
    3.7482    2.5602    1.2714 N   0  0  0  0  0  0  0  0  0  0  0  0
  1  3  1  0
  1 14  1  0
  4  2  1  1
  2 13  1  0
  2 24  1  0
  3 10  2  0
  3 18  1  0
  3 29  1  1
  4 11  1  0
  4 15  1  0
  5 20  1  0
  5 26  1  0
  6 13  2  0
  6 28  1  0
 25  7  1  6
  8 14  2  0
 14  9  1  6
 11 20  1  6
 11 27  1  0
 12 21  1  0
 13 19  1  0
 14 17  1  0
 15 23  1  6
 15 25  1  0
 16 17  1  0
 27 18  1  6
 19 21  2  0
 19 30  1  0
 21 22  1  0
 22 28  2  0
 24 30  2  0
 25 27  1  0
M  END
