
     RDKit          3D

 20 21  0  0  0  0  0  0  0  0999 V2000
   -0.2001   -1.7645    0.5174 C   0  0  1  0  0  0  0  0  0  0  0  0
   -3.1734    1.7793   -0.0423 C   0  0  0  0  0  0  0  0  0  0  0  0
   -3.6958   -2.8290   -0.4913 O   0  0  0  0  0  0  0  0  0  0  0  0
    0.0807   -0.7311   -1.8043 C   0  0  0  0  0  0  0  0  0  0  0  0
   -2.7060   -0.5654    1.9160 O   0  0  0  0  0  0  0  0  0  0  0  0
    1.8048    0.2577    1.5363 C   0  0  0  0  0  0  0  0  0  0  0  0
   -2.7167    2.8350   -0.9436 N   0  0  0  0  0  0  0  0  0  0  0  0
   -0.8816    0.6957    0.0757 C   0  0  0  0  0  0  0  0  0  0  0  0
    1.5285    0.0577    0.1627 C   0  0  0  0  0  0  0  0  0  0  0  0
    2.5587    0.3691   -0.7598 C   0  0  0  0  0  0  0  0  0  0  0  0
   -2.6630   -2.0380    0.0161 C   0  0  0  0  0  0  0  0  0  0  0  0
    3.0485    0.7254    1.9666 C   0  0  0  0  0  0  0  0  0  0  0  0
   -1.4087   -2.5119    0.0016 C   0  0  0  0  0  0  0  0  0  0  0  0
   -3.0281   -0.6753    0.5523 C   0  0  2  0  0  0  0  0  0  0  0  0
    4.0497    1.0303    1.0394 C   0  0  0  0  0  0  0  0  0  0  0  0
    5.3976    1.4953    1.5054 C   0  0  0  0  0  0  0  0  0  0  0  0
   -2.3807    0.4693   -0.2707 C   0  0  1  0  0  0  0  0  0  0  0  0
    0.9116   -2.6259    0.4551 O   0  0  0  0  0  0  0  0  0  0  0  0
    3.8014    0.8366   -0.3233 C   0  0  0  0  0  0  0  0  0  0  0  0
    0.1242   -0.4477   -0.2732 C   0  0  1  0  0  0  0  0  0  0  0  0
  1 13  1  0
  1 18  1  6
  1 20  1  0
  2  7  1  0
 17  2  1  1
  3 11  1  0
 20  4  1  6
 14  5  1  1
  6  9  1  0
  6 12  2  0
  8 17  1  0
  8 20  1  0
  9 10  2  0
  9 20  1  0
 10 19  1  0
 11 13  2  0
 11 14  1  0
 12 15  1  0
 14 17  1  0
 15 16  1  0
 15 19  2  0
M  END
