
     RDKit          3D

 23 27  0  0  0  0  0  0  0  0999 V2000
    2.5507    2.4356    0.7066 C   0  0  0  0  0  0  0  0  0  0  0  0
    2.3259    1.0325    0.0638 C   0  0  1  0  0  0  0  0  0  0  0  0
    0.8401    0.5143    0.2719 C   0  0  1  0  0  0  0  0  0  0  0  0
   -1.5528    0.3050   -0.6589 C   0  0  2  0  0  0  0  0  0  0  0  0
   -1.8313   -1.4936    0.6470 C   0  0  0  0  0  0  0  0  0  0  0  0
   -4.0566   -0.5818   -0.4227 C   0  0  0  0  0  0  0  0  0  0  0  0
   -5.6969    0.9656   -1.1789 O   0  0  0  0  0  0  0  0  0  0  0  0
   -3.6892    1.8471   -0.2611 C   0  0  0  0  0  0  0  0  0  0  0  0
   -2.4867    1.1072    0.3350 C   0  0  2  0  0  0  0  0  0  0  0  0
   -0.8977   -1.1229   -0.4931 C   0  0  1  0  0  0  0  0  0  0  0  0
    0.5388    0.6761    1.8104 C   0  0  0  0  0  0  0  0  0  0  0  0
    2.5813    1.1976   -1.3160 O   0  0  0  0  0  0  0  0  0  0  0  0
   -2.1065    1.4868    1.6269 O   0  0  0  0  0  0  0  0  0  0  0  0
   -0.2724    1.2374   -0.5274 C   0  0  0  0  0  0  0  0  0  0  0  0
    3.3263   -0.0151    0.7384 C   0  0  1  0  0  0  0  0  0  0  0  0
   -1.2542   -2.0518   -1.7055 C   0  0  0  0  0  0  0  0  0  0  0  0
    2.9025   -1.5411    0.8206 C   0  0  0  0  0  0  0  0  0  0  0  0
    4.6206    0.1025    0.2008 O   0  0  0  0  0  0  0  0  0  0  0  0
    0.6756   -0.9443   -0.2687 C   0  0  2  0  0  0  0  0  0  0  0  0
   -2.7205   -0.3078    0.2946 C   0  0  2  0  0  0  0  0  0  0  0  0
    1.3851   -1.8936    0.7132 C   0  0  0  0  0  0  0  0  0  0  0  0
   -4.6042    0.7659   -0.6725 C   0  0  0  0  0  0  0  0  0  0  0  0
    1.3817   -1.1726   -1.6714 C   0  0  0  0  0  0  0  0  0  0  0  0
  2  1  1  1
  2  3  1  0
  2 12  1  0
  2 15  1  0
  3 11  1  1
  3 14  1  0
  3 19  1  0
  4  9  1  0
  4 10  1  0
  4 14  1  6
  4 20  1  0
  5 10  1  0
 20  5  1  1
  6 20  1  0
  6 22  1  0
  7 22  2  0
  8  9  1  0
  8 22  1  0
  9 13  1  1
  9 20  1  0
 10 16  1  6
 10 19  1  0
 15 17  1  0
 15 18  1  6
 17 21  1  0
 19 21  1  0
 19 23  1  6
M  END
