
     RDKit          3D

 25 29  0  0  0  0  0  0  0  0999 V2000
   91.5767   67.0544   -0.9515 C   0  0  0  0  0  0  0  0  0  0  0  0
   92.3868   71.2108   -3.7842 C   0  0  0  0  0  0  0  0  0  0  0  0
   93.3609   71.9481   -6.2556 C   0  0  0  0  0  0  0  0  0  0  0  0
   96.2730   69.4912   -4.7276 C   0  0  2  0  0  0  0  0  0  0  0  0
   94.2229   69.2840   -3.4793 C   0  0  0  0  0  0  0  0  0  0  0  0
   89.5373   66.6472   -2.1851 C   0  0  0  0  0  0  0  0  0  0  0  0
   92.0996   72.5938   -5.7462 C   0  0  0  0  0  0  0  0  0  0  0  0
   97.1428   69.3992   -7.0295 C   0  0  0  0  0  0  0  0  0  0  0  0
   89.8448   67.3926   -3.8329 C   0  0  0  0  0  0  0  0  0  0  0  0
   98.4032   68.1157   -5.5371 C   0  0  0  0  0  0  0  0  0  0  0  0
   96.1150   70.0345   -6.0520 C   0  0  0  0  0  0  0  0  0  0  0  0
   90.2112   67.3192   -3.1139 C   0  0  0  0  0  0  0  0  0  0  0  0
   91.4426   69.4700   -4.9905 C   0  0  0  0  0  0  0  0  0  0  0  0
   90.3727   66.5996   -1.1445 C   0  0  0  0  0  0  0  0  0  0  0  0
   93.1802   70.4706   -6.0664 C   0  0  0  0  0  0  0  0  0  0  0  0
   97.4021   68.5727   -4.5003 C   0  0  0  0  0  0  0  0  0  0  0  0
   92.4016   67.6269   -1.9424 C   0  0  0  0  0  0  0  0  0  0  0  0
   91.8287   72.0744   -4.3296 C   0  0  0  0  0  0  0  0  0  0  0  0
   91.5432   67.8713   -3.1865 C   0  0  0  0  0  0  0  0  0  0  0  0
   95.5352   69.4871   -3.6334 C   0  0  0  0  0  0  0  0  0  0  0  0
   98.1544   68.5804   -6.8096 N   0  0  0  0  0  0  0  0  0  0  0  0
   93.2657   69.0504   -3.8768 C   0  0  1  0  0  0  0  0  0  0  0  0
   92.2816   70.3287   -4.5385 C   0  0  0  0  0  0  0  0  0  0  0  0
   93.3127   68.7747   -4.0370 C   0  0  0  0  0  0  0  0  0  0  0  0
   91.8410   68.6342   -3.7974 C   0  0  2  0  0  0  0  0  0  0  0  0
  1 14  2  0
  1 17  1  0
  2 18  1  0
  2 23  1  0
  3  7  1  0
  3 15  1  0
  4 11  1  0
  4 16  1  0
  4 20  1  6
  5 20  1  0
 22  5  1  1
  6 12  2  0
  6 14  1  0
  7 18  1  0
  8 11  1  0
  8 21  2  0
  9 12  1  0
 10 16  1  0
 10 21  1  0
 12 19  1  0
 13 23  1  0
 13 25  1  0
 15 23  1  0
 17 19  2  0
 25 19  1  6
 22 23  1  0
 22 24  1  0
 22 25  1  0
 24 25  1  0
M  END
