
     RDKit          3D

 22 25  0  0  0  0  0  0  0  0999 V2000
   -0.4559    0.8710   -0.5982 C   0  0  2  0  0  0  0  0  0  0  0  0
   -0.4245   -1.5487    0.2779 C   0  0  0  0  0  0  0  0  0  0  0  0
   -4.1025   -0.3695    0.3780 C   0  0  0  0  0  0  0  0  0  0  0  0
    5.9965    0.4193    0.2570 C   0  0  0  0  0  0  0  0  0  0  0  0
    0.1682   -0.5648   -0.7404 C   0  0  2  0  0  0  0  0  0  0  0  0
   -2.5954    2.2139    0.0863 C   0  0  0  0  0  0  0  0  0  0  0  0
    4.4729    0.6414   -2.3096 O   0  0  0  0  0  0  0  0  0  0  0  0
   -1.9433   -1.7204    0.0568 C   0  0  2  0  0  0  0  0  0  0  0  0
   -4.7411   -1.7612    0.2909 C   0  0  0  0  0  0  0  0  0  0  0  0
   -1.8190    3.3817    0.7021 C   0  0  0  0  0  0  0  0  0  0  0  0
   -1.8269    0.8625    0.1739 C   0  0  1  0  0  0  0  0  0  0  0  0
   -2.6850   -0.3722   -0.2473 C   0  0  2  0  0  0  0  0  0  0  0  0
    3.7537   -0.7490    0.9034 C   0  0  1  0  0  0  0  0  0  0  0  0
   -0.5513    1.5164   -2.0001 C   0  0  0  0  0  0  0  0  0  0  0  0
    2.4217   -0.0846    0.4983 C   0  0  0  0  0  0  0  0  0  0  0  0
   -2.5657   -2.4579    1.2599 C   0  0  0  0  0  0  0  0  0  0  0  0
    4.0062    0.3094   -1.2311 C   0  0  0  0  0  0  0  0  0  0  0  0
    2.5925    0.5683   -0.8691 C   0  0  1  0  0  0  0  0  0  0  0  0
    1.7192   -0.6780   -0.7203 C   0  0  2  0  0  0  0  0  0  0  0  0
   -3.9833   -2.7897    1.0307 N   0  0  0  0  0  0  0  0  0  0  0  0
    4.7946   -0.4218   -0.1995 C   0  0  1  0  0  0  0  0  0  0  0  0
    4.1712   -0.3079    2.2383 N   0  0  0  0  0  0  0  0  0  0  0  0
  1  5  1  0
  1 11  1  0
  1 14  1  6
  5  2  1  1
  8  2  1  1
  3  9  1  0
 12  3  1  1
 21  4  1  1
  5 19  1  0
  6 10  1  0
 11  6  1  6
  7 17  2  0
  8 12  1  0
  8 16  1  0
  9 20  1  0
 11 12  1  0
 13 15  1  0
 13 21  1  0
 13 22  1  1
 15 18  1  0
 19 15  1  1
 16 20  1  0
 18 17  1  6
 17 21  1  0
 18 19  1  0
M  END
