
     RDKit          3D

 14 15  0  0  0  0  0  0  0  0999 V2000
    2.0577    0.8939    0.3634 C   0  0  0  0  0  0  0  0  0  0  0  0
   -2.0190    0.8118    2.2614 O   0  0  0  0  0  0  0  0  0  0  0  0
    2.0215    1.6154   -1.7668 N   0  0  0  0  0  0  0  0  0  0  0  0
    2.8156    1.1160   -0.7006 C   0  0  0  0  0  0  0  0  0  0  0  0
    0.7802   -0.7786    0.9004 C   0  0  0  0  0  0  0  0  0  0  0  0
    0.8158    1.7267   -1.3805 N   0  0  0  0  0  0  0  0  0  0  0  0
   -1.5315    0.0338    0.0413 C   0  0  0  0  0  0  0  0  0  0  0  0
   -0.0844    0.1575    0.2455 N   0  0  0  0  0  0  0  0  0  0  0  0
    0.6954    1.3637    0.0255 C   0  0  1  0  0  0  0  0  0  0  0  0
   -1.8380   -1.0349   -1.0213 C   0  0  0  0  0  0  0  0  0  0  0  0
    4.0777    0.4878   -0.9231 N   0  0  0  0  0  0  0  0  0  0  0  0
    2.0115   -0.3875    0.9832 N   0  0  0  0  0  0  0  0  0  0  0  0
   -2.2564   -0.2404    1.3675 C   0  0  0  0  0  0  0  0  0  0  0  0
   -1.3942   -2.3040   -0.6196 O   0  0  0  0  0  0  0  0  0  0  0  0
  1  4  2  0
  1  9  1  0
  1 12  1  0
  2 13  1  0
  3  4  1  0
  3  6  2  0
  4 11  1  0
  5  8  1  0
  5 12  2  0
  6  9  1  0
  7  8  1  0
  7 10  1  0
  7 13  1  0
  9  8  1  6
 10 14  1  0
M  END
