
     RDKit          3D

 11 11  0  0  0  0  0  0  0  0999 V2000
   -0.0135   -0.7241    0.1832 N   0  0  0  0  0  0  0  0  0  0  0  0
   -2.2528   -0.9959   -0.5629 C   0  0  0  0  0  0  0  0  0  0  0  0
   -2.7720    1.4253   -0.6007 N   0  0  0  0  0  0  0  0  0  0  0  0
   -2.1356    0.3473    0.1598 C   0  0  2  0  0  0  0  0  0  0  0  0
    1.3705   -1.0350    0.4444 C   0  0  0  0  0  0  0  0  0  0  0  0
   -0.6353    0.5786    0.3654 C   0  0  0  0  0  0  0  0  0  0  0  0
    1.7168   -2.2438    0.5438 O   0  0  0  0  0  0  0  0  0  0  0  0
    2.1116    1.0180    1.4664 O   0  0  0  0  0  0  0  0  0  0  0  0
    2.4475    0.0216    0.5297 C   0  0  2  0  0  0  0  0  0  0  0  0
    2.7809    0.5850   -0.8613 C   0  0  0  0  0  0  0  0  0  0  0  0
   -0.9627   -1.7392   -0.2452 C   0  0  0  0  0  0  0  0  0  0  0  0
  1  5  1  0
  1  6  1  0
  1 11  1  0
  2  4  1  0
  2 11  1  0
  4  3  1  6
  4  6  1  0
  5  7  2  0
  5  9  1  0
  8  9  1  0
  9 10  1  6
M  END
