
     RDKit          3D

 14 15  0  0  0  0  0  0  0  0999 V2000
   -2.2762    1.2462   -0.0523 N   0  0  0  0  0  0  0  0  0  0  0  0
   -1.5513    1.4210    1.2150 C   0  0  0  0  0  0  0  0  0  0  0  0
   -1.4433   -1.4775   -0.2009 C   0  0  0  0  0  0  0  0  0  0  0  0
   -2.8352   -1.1705    0.3830 C   0  0  0  0  0  0  0  0  0  0  0  0
   -0.3791   -0.5894    0.3088 N   0  0  0  0  0  0  0  0  0  0  0  0
    2.5364   -1.6338   -1.8224 C   0  0  0  0  0  0  0  0  0  0  0  0
    3.8370    1.7813   -0.7931 N   0  0  0  0  0  0  0  0  0  0  0  0
    2.9927    0.6372   -0.9441 C   0  0  0  0  0  0  0  0  0  0  0  0
    1.6591    0.6623   -0.4250 N   0  0  0  0  0  0  0  0  0  0  0  0
    3.4444   -0.4619   -1.5558 C   0  0  0  0  0  0  0  0  0  0  0  0
   -0.5898    0.2508    1.5008 C   0  0  0  0  0  0  0  0  0  0  0  0
    0.8730   -0.5383   -0.4039 C   0  0  0  0  0  0  0  0  0  0  0  0
   -3.3487    0.2434    0.0425 C   0  0  0  0  0  0  0  0  0  0  0  0
    1.3058   -1.5964   -1.0253 N   0  0  0  0  0  0  0  0  0  0  0  0
  1  2  1  0
  1 13  1  0
  2 11  1  0
  3  4  1  0
  3  5  1  0
  4 13  1  0
  5 11  1  0
  5 12  1  0
  6 10  1  0
  6 14  1  0
  7  8  1  0
  8  9  1  0
  8 10  2  0
  9 12  1  0
 12 14  2  0
M  END
