
     RDKit          3D

 18 20  0  0  0  0  0  0  0  0999 V2000
   16.3046   33.3485   13.8780 C   0  0  0  0  0  0  0  0  0  0  0  0
   17.4645   33.6497   13.1860 C   0  0  0  0  0  0  0  0  0  0  0  0
   11.8642   35.7345   16.8025 C   0  0  0  0  0  0  0  0  0  0  0  0
   13.1630   31.1772   12.4097 C   0  0  0  0  0  0  0  0  0  0  0  0
   10.5413   33.7198   16.8679 N   0  0  0  0  0  0  0  0  0  0  0  0
   16.3156   35.4714   12.0676 C   0  0  0  0  0  0  0  0  0  0  0  0
   13.4293   31.1917   13.8961 C   0  0  0  0  0  0  0  0  0  0  0  0
   10.7185   35.0873   17.2707 N   0  0  0  0  0  0  0  0  0  0  0  0
   13.5369   34.8490   15.1398 N   0  0  0  0  0  0  0  0  0  0  0  0
   13.9427   33.8064   14.4436 C   0  0  0  0  0  0  0  0  0  0  0  0
   11.9943   32.4611   15.3562 N   0  0  0  0  0  0  0  0  0  0  0  0
   15.1629   34.0747   13.6713 C   0  0  0  0  0  0  0  0  0  0  0  0
   17.4643   34.7135   12.2708 C   0  0  0  0  0  0  0  0  0  0  0  0
   15.1603   35.1797   12.7579 C   0  0  0  0  0  0  0  0  0  0  0  0
   13.1354   32.5342   14.5551 C   0  0  0  0  0  0  0  0  0  0  0  0
   12.1549   36.9730   16.9874 C   0  0  0  0  0  0  0  0  0  0  0  0
   12.4241   34.7787   15.9156 C   0  0  0  0  0  0  0  0  0  0  0  0
   11.6264   33.6209   16.0713 C   0  0  0  0  0  0  0  0  0  0  0  0
  1  2  1  0
  1 12  2  0
  2 13  2  0
  3  8  1  0
  3 16  2  0
  3 17  1  0
  4  7  1  0
  5  8  2  0
  5 18  1  0
  6 13  1  0
  6 14  2  0
  7 15  1  0
  9 10  2  0
  9 17  1  0
 10 12  1  0
 10 15  1  0
 11 15  2  0
 11 18  1  0
 12 14  1  0
 17 18  2  0
M  END
