
     RDKit          3D

 10 11  0  0  0  0  0  0  0  0999 V2000
   25.4812  -20.5676  -12.0386 C   0  0  0  0  0  0  0  0  0  0  0  0
   25.3062  -23.4075   -8.9021 C   0  0  0  0  0  0  0  0  0  0  0  0
   24.2535  -23.5205  -11.0730 O   0  0  0  0  0  0  0  0  0  0  0  0
   25.7918  -22.0765   -8.7378 C   0  0  0  0  0  0  0  0  0  0  0  0
   24.0247  -22.2369  -10.7430 C   0  0  0  0  0  0  0  0  0  0  0  0
   25.4149  -19.3311  -12.1831 O   0  0  0  0  0  0  0  0  0  0  0  0
   25.1156  -21.1289  -10.7136 C   0  0  0  0  0  0  0  0  0  0  0  0
   24.0928  -23.3438   -9.7340 C   0  0  0  0  0  0  0  0  0  0  0  0
   26.2352  -21.4806   -9.9354 O   0  0  0  0  0  0  0  0  0  0  0  0
   25.8519  -21.3737  -12.9495 N   0  0  0  0  0  0  0  0  0  0  0  0
  1  6  2  0
  1  7  1  0
  1 10  1  0
  2  4  1  0
  2  8  1  0
  3  5  1  0
  3  8  1  0
  4  9  1  0
  5  7  1  0
  5  8  1  0
  7  9  1  0
M  END
$$$$
