
     RDKit          3D

 11 11  0  0  0  0  0  0  0  0999 V2000
   25.9796  -24.1688   -9.0948 O   0  0  0  0  0  0  0  0  0  0  0  0
   25.6580  -20.7297   -9.9309 C   0  0  0  0  0  0  0  0  0  0  0  0
   24.0311  -23.6254  -11.2102 O   0  0  0  0  0  0  0  0  0  0  0  0
   25.0114  -23.4449   -8.8808 C   0  0  0  0  0  0  0  0  0  0  0  0
   26.4015  -19.7264  -11.9712 C   0  0  0  0  0  0  0  0  0  0  0  0
   25.0293  -21.6347  -12.0601 C   0  0  0  0  0  0  0  0  0  0  0  0
   24.9925  -21.6736  -10.6728 C   0  0  0  0  0  0  0  0  0  0  0  0
   26.3632  -19.7502  -10.5706 C   0  0  0  0  0  0  0  0  0  0  0  0
   24.5945  -23.1996   -7.7084 O   0  0  0  0  0  0  0  0  0  0  0  0
   25.7295  -20.6544  -12.7126 C   0  0  0  0  0  0  0  0  0  0  0  0
   24.2530  -22.7995  -10.0724 C   0  0  0  0  0  0  0  0  0  0  0  0
  1  4  1  0
  2  7  2  0
  2  8  1  0
  3 11  1  0
  4  9  2  0
  4 11  1  0
  5  8  2  0
  5 10  1  0
  6  7  1  0
  6 10  2  0
  7 11  1  0
M  END
$$$$
