
     RDKit          3D

 11 10  0  0  0  0  0  0  0  0999 V2000
    5.3618    9.4883   23.6854 C   0  0  0  0  0  0  0  0  0  0  0  0
    6.8369    9.8205   23.2426 C   0  0  0  0  0  0  0  0  0  0  0  0
    9.0674    9.4314   21.7401 C   0  0  0  0  0  0  0  0  0  0  0  0
    9.7624    8.4610   20.7345 C   0  0  0  0  0  0  0  0  0  0  0  0
    5.0356   10.2259   25.0284 C   0  0  0  0  0  0  0  0  0  0  0  0
   10.7617    9.0121   19.7052 C   0  0  0  0  0  0  0  0  0  0  0  0
   11.6307    8.1722   18.7625 C   0  0  0  0  0  0  0  0  0  0  0  0
   11.0972    7.8754   17.3389 C   0  0  0  0  0  0  0  0  0  0  0  0
   12.8958    7.7341   19.1247 C   0  0  0  0  0  0  0  0  0  0  0  0
    3.9447    9.6510   25.8474 N   0  0  0  0  0  0  0  0  0  0  0  0
    7.7661    8.9445   22.4021 C   0  0  0  0  0  0  0  0  0  0  0  0
  1  2  1  0
  1  5  1  0
  2 11  1  0
  3  4  1  0
  3 11  2  3
  4  6  2  3
  5 10  1  0
  6  7  1  0
  7  8  1  0
  7  9  1  0
M  END
$$$$
