
     RDKit          3D

 13 14  0  0  0  0  0  0  0  0999 V2000
   -2.2465    1.7555    0.9198 O   0  0  0  0  0  0  0  0  0  0  0  0
   -1.9959   -1.0162    0.1174 O   0  0  0  0  0  0  0  0  0  0  0  0
   -1.3231    0.0023   -0.6115 C   0  0  1  0  0  0  0  0  0  0  0  0
   -2.4938    1.9562   -1.3549 O   0  0  0  0  0  0  0  0  0  0  0  0
   -0.0152   -2.1644    0.5489 O   0  0  0  0  0  0  0  0  0  0  0  0
    2.8355    0.1904    0.5602 C   0  0  0  0  0  0  0  0  0  0  0  0
   -2.0568    1.2902   -0.3782 C   0  0  0  0  0  0  0  0  0  0  0  0
    0.7393   -1.0053    0.3815 C   0  0  0  0  0  0  0  0  0  0  0  0
    0.9077    1.2693   -0.4391 C   0  0  0  0  0  0  0  0  0  0  0  0
    0.1323    0.1221   -0.1885 C   0  0  0  0  0  0  0  0  0  0  0  0
    2.2523    1.3036   -0.0537 C   0  0  0  0  0  0  0  0  0  0  0  0
   -1.3195   -2.2521   -0.0200 C   0  0  0  0  0  0  0  0  0  0  0  0
    2.0806   -0.9666    0.7745 C   0  0  0  0  0  0  0  0  0  0  0  0
  1  7  1  0
  2  3  1  0
  2 12  1  0
  3  7  1  1
  3 10  1  0
  4  7  2  0
  5  8  1  0
  5 12  1  0
  6 11  2  0
  6 13  1  0
  8 10  1  0
  8 13  2  0
  9 10  2  0
  9 11  1  0
M  END
