
     RDKit          3D

 16 16  0  0  0  0  0  0  0  0999 V2000
    1.1933   -0.5173    1.2097 O   0  0  0  0  0  0  0  0  0  0  0  0
   -2.3776    0.5897   -0.3942 C   0  0  1  0  0  0  0  0  0  0  0  0
    2.8319    0.2111   -0.9458 O   0  0  0  0  0  0  0  0  0  0  0  0
   -2.2551   -0.7854   -0.0490 O   0  0  0  0  0  0  0  0  0  0  0  0
    2.5695   -0.9265    0.2806 P   0  0  0  0  0  0  0  0  0  0  0  0
   -1.1125   -1.0866    0.7348 C   0  0  2  0  0  0  0  0  0  0  0  0
   -0.3390    1.2605    0.6386 C   0  0  2  0  0  0  0  0  0  0  0  0
    0.0938   -0.1998    0.3711 C   0  0  1  0  0  0  0  0  0  0  0  0
   -1.7406    1.4735    0.5196 O   0  0  0  0  0  0  0  0  0  0  0  0
    2.3835   -2.2943   -0.3356 O   0  0  0  0  0  0  0  0  0  0  0  0
   -0.4825   -2.8948   -0.7547 O   0  0  0  0  0  0  0  0  0  0  0  0
    3.9211   -0.9623    1.2968 O   0  0  0  0  0  0  0  0  0  0  0  0
   -1.9108    0.8120   -1.7626 N   0  0  0  0  0  0  0  0  0  0  0  0
   -0.7964   -2.5823    0.5767 C   0  0  0  0  0  0  0  0  0  0  0  0
    0.4452    2.2745   -0.2118 C   0  0  0  0  0  0  0  0  0  0  0  0
   -0.0491    3.5716   -0.0135 O   0  0  0  0  0  0  0  0  0  0  0  0
  1  5  1  0
  8  1  1  1
  2  4  1  0
  2  9  1  0
  2 13  1  6
  3  5  1  0
  4  6  1  0
  5 10  2  0
  5 12  1  0
  6  8  1  0
  6 14  1  6
  7  8  1  0
  7  9  1  0
  7 15  1  6
 11 14  1  0
 15 16  1  0
M  END
