
     RDKit          3D

  9  8  0  0  0  0  0  0  0  0999 V2000
    2.3427    0.5870   -0.0158 O   0  0  0  0  0  0  0  0  0  0  0  0
   -0.8635    2.0532   -0.0070 O   0  0  0  0  0  0  0  0  0  0  0  0
    1.5508   -0.2294   -0.8172 C   0  0  0  0  0  0  0  0  0  0  0  0
   -0.9008   -0.3276   -0.2862 C   0  0  2  0  0  0  0  0  0  0  0  0
   -0.9124    0.8324    1.9378 O   0  0  0  0  0  0  0  0  0  0  0  0
   -0.8999    0.9228    0.5489 C   0  0  0  0  0  0  0  0  0  0  0  0
   -1.9042   -1.1952    0.1715 O   0  0  0  0  0  0  0  0  0  0  0  0
    0.4541   -1.0439   -0.2007 C   0  0  0  0  0  0  0  0  0  0  0  0
    1.7332   -0.2565   -2.0637 O   0  0  0  0  0  0  0  0  0  0  0  0
  1  3  1  0
  2  6  2  0
  3  8  1  0
  3  9  2  0
  4  6  1  0
  4  7  1  1
  4  8  1  0
  5  6  1  0
M  END
