
     RDKit          3D

 10 11  0  0  0  0  0  0  0  0999 V2000
    1.9441   -0.6018   -0.4584 C   0  0  0  0  0  0  0  0  0  0  0  0
   -2.2295    0.1487   -0.1693 C   0  0  0  0  0  0  0  0  0  0  0  0
   -0.4103    1.2148   -1.3579 O   0  0  0  0  0  0  0  0  0  0  0  0
   -1.5528   -1.0821    0.4340 C   0  0  0  0  0  0  0  0  0  0  0  0
    0.1847    1.0986   -0.0881 C   0  0  2  0  0  0  0  0  0  0  0  0
    1.9644   -1.0180   -1.6480 O   0  0  0  0  0  0  0  0  0  0  0  0
    0.6325   -0.3426    0.2240 C   0  0  1  0  0  0  0  0  0  0  0  0
   -1.2732    1.3429   -0.2458 C   0  0  2  0  0  0  0  0  0  0  0  0
   -0.3114   -1.3132   -0.1979 O   0  0  0  0  0  0  0  0  0  0  0  0
    3.1743   -0.3255    0.2119 N   0  0  0  0  0  0  0  0  0  0  0  0
  1  6  2  0
  7  1  1  6
  1 10  1  0
  2  4  1  0
  8  2  1  6
  5  3  1  6
  3  8  1  0
  4  9  1  0
  5  7  1  0
  5  8  1  0
  7  9  1  0
M  END
