
     RDKit          3D

 20 21  0  0  0  0  0  0  0  0999 V2000
   12.3981   18.5876   15.9099 O   0  0  0  0  0  0  0  0  0  0  0  0
   13.4100   19.7086   15.7689 P   0  0  0  0  0  0  0  0  0  0  0  0
    8.0079   11.8674   12.6538 N   0  0  0  0  0  0  0  0  0  0  0  0
    7.9236   12.0056   14.0289 C   0  0  0  0  0  0  0  0  0  0  0  0
   12.6394   19.9438   16.0142 O   0  0  0  0  0  0  0  0  0  0  0  0
   13.0673   20.9917   14.6393 O   0  0  0  0  0  0  0  0  0  0  0  0
   12.2703   14.4811   13.3519 O   0  0  0  0  0  0  0  0  0  0  0  0
   11.8969   16.8844   13.7604 C   0  0  0  0  0  0  0  0  0  0  0  0
   12.0807   18.0824   14.1776 C   0  0  0  0  0  0  0  0  0  0  0  0
   10.9782   16.6813   11.6113 O   0  0  0  0  0  0  0  0  0  0  0  0
   11.4456   14.7212   12.6291 C   0  0  0  0  0  0  0  0  0  0  0  0
    8.9791   13.1865   14.0209 C   0  0  0  0  0  0  0  0  0  0  0  0
    9.4980   14.1185   15.1784 O   0  0  0  0  0  0  0  0  0  0  0  0
    8.6919   12.2980   11.9953 N   0  0  0  0  0  0  0  0  0  0  0  0
   14.3359   18.7669   16.3692 O   0  0  0  0  0  0  0  0  0  0  0  0
    7.1710   12.0639   15.1535 N   0  0  0  0  0  0  0  0  0  0  0  0
   10.8151   16.2340   12.7758 C   0  0  0  0  0  0  0  0  0  0  0  0
    9.2879   12.9976   12.6196 C   0  0  0  0  0  0  0  0  0  0  0  0
   10.1790   13.8707   12.6092 N   0  0  0  0  0  0  0  0  0  0  0  0
   12.9520   15.7830   13.7169 C   0  0  0  0  0  0  0  0  0  0  0  0
  1  2  1  0
  1  9  1  0
  2  5  2  0
  2  6  1  0
  2 15  1  0
  3  4  2  0
  3 14  1  0
  4 12  1  0
  4 16  1  0
  7 11  1  0
  7 20  1  0
  8  9  1  0
  8 17  1  0
  8 20  1  0
 10 17  1  0
 11 17  1  0
 11 19  1  0
 12 13  1  0
 12 18  1  0
 14 18  2  0
 18 19  1  0
M  END
$$$$
