
     RDKit          3D

 31 34  0  0  0  0  0  0  0  0999 V2000
    9.6431   13.0664   13.8564 C   0  0  0  0  0  0  0  0  0  0  0  0
   10.5590   13.9907   14.0151 N   0  0  0  0  0  0  0  0  0  0  0  0
   11.6959   18.1405   15.7214 P   0  0  0  0  0  0  0  0  0  0  0  0
   14.7954   20.2642   14.5242 O   0  0  0  0  0  0  0  0  0  0  0  0
   15.0184   22.3125   13.0902 O   0  0  0  0  0  0  0  0  0  0  0  0
   13.2924   16.0240   13.1829 C   0  0  0  0  0  0  0  0  0  0  0  0
    8.8397   13.0647   14.9927 C   0  0  0  0  0  0  0  0  0  0  0  0
   14.2572   19.0296   15.3353 P   0  0  0  0  0  0  0  0  0  0  0  0
   12.2444   16.7582   15.0853 O   0  0  0  0  0  0  0  0  0  0  0  0
    9.4360   12.2108   12.8514 N   0  0  0  0  0  0  0  0  0  0  0  0
    7.8166   12.1518   15.0375 C   0  0  0  0  0  0  0  0  0  0  0  0
    7.5952   11.2903   14.0198 N   0  0  0  0  0  0  0  0  0  0  0  0
   11.6330   14.2680   13.0099 C   0  0  0  0  0  0  0  0  0  0  0  0
   12.4945   17.2476   11.3422 O   0  0  0  0  0  0  0  0  0  0  0  0
   12.0822   16.5988   12.4931 C   0  0  0  0  0  0  0  0  0  0  0  0
    6.9979   12.1109   16.0912 N   0  0  0  0  0  0  0  0  0  0  0  0
   14.2142   17.9262   14.1912 O   0  0  0  0  0  0  0  0  0  0  0  0
    9.2754   14.0065   15.8204 N   0  0  0  0  0  0  0  0  0  0  0  0
   10.8283   17.9482   16.9145 O   0  0  0  0  0  0  0  0  0  0  0  0
   15.1886   18.5185   16.2939 O   0  0  0  0  0  0  0  0  0  0  0  0
   12.5999   21.6680   14.1069 O   0  0  0  0  0  0  0  0  0  0  0  0
   12.9337   14.6996   13.5314 O   0  0  0  0  0  0  0  0  0  0  0  0
   13.5259   16.7293   14.4820 C   0  0  0  0  0  0  0  0  0  0  0  0
   13.9935   21.1446   13.4469 P   0  0  0  0  0  0  0  0  0  0  0  0
   10.9168   15.3020   10.9052 O   0  0  0  0  0  0  0  0  0  0  0  0
    8.4201   11.3587   12.9796 C   0  0  0  0  0  0  0  0  0  0  0  0
   10.9739   18.9118   14.6006 O   0  0  0  0  0  0  0  0  0  0  0  0
   11.1049   15.5375   12.1750 C   0  0  0  0  0  0  0  0  0  0  0  0
   12.9903   19.2255   16.1057 O   0  0  0  0  0  0  0  0  0  0  0  0
   10.2947   14.5577   15.2454 C   0  0  0  0  0  0  0  0  0  0  0  0
   13.5708   20.2285   12.2363 O   0  0  0  0  0  0  0  0  0  0  0  0
  1  2  1  0
  1  7  1  0
  1 10  2  0
  2 13  1  0
  2 30  1  0
  3  9  1  0
  3 19  2  0
  3 27  1  0
  3 29  1  0
  4  8  1  0
  4 24  1  0
  5 24  2  0
  6 15  1  0
  6 22  1  0
  6 23  1  0
  7 11  2  0
  7 18  1  0
  8 17  1  0
  8 20  2  0
  8 29  1  0
  9 23  1  0
 10 26  1  0
 11 12  1  0
 11 16  1  0
 12 26  2  0
 13 22  1  0
 13 28  1  0
 14 15  1  0
 15 28  1  0
 17 23  1  0
 18 30  2  0
 21 24  1  0
 24 31  1  0
 25 28  1  0
M  END
$$$$
