
     RDKit          3D

 30 32  0  0  0  0  0  0  0  0999 V2000
   11.4121   19.0371   14.6819 O   0  0  0  0  0  0  0  0  0  0  0  0
   12.9631   20.0393   17.0818 O   0  0  0  0  0  0  0  0  0  0  0  0
   13.4284   21.1139   13.5760 O   0  0  0  0  0  0  0  0  0  0  0  0
   12.5682   15.5970   12.7094 C   0  0  0  0  0  0  0  0  0  0  0  0
   15.0469   19.1972   13.3155 O   0  0  0  0  0  0  0  0  0  0  0  0
   15.7095   21.3680   13.4611 O   0  0  0  0  0  0  0  0  0  0  0  0
    7.5603   11.3941   14.2763 C   0  0  0  0  0  0  0  0  0  0  0  0
   15.0586   20.4294   15.4447 N   0  0  0  0  0  0  0  0  0  0  0  0
   10.7801   14.7434   11.6711 C   0  0  0  0  0  0  0  0  0  0  0  0
    9.2882   12.2815   13.3511 C   0  0  0  0  0  0  0  0  0  0  0  0
   12.2489   14.3972   13.3141 O   0  0  0  0  0  0  0  0  0  0  0  0
   11.9880   16.6127   14.4781 O   0  0  0  0  0  0  0  0  0  0  0  0
   11.2404   16.0121   12.2471 C   0  0  0  0  0  0  0  0  0  0  0  0
    8.9692   11.2930   12.4805 N   0  0  0  0  0  0  0  0  0  0  0  0
    9.8142   13.8615   14.6895 C   0  0  0  0  0  0  0  0  0  0  0  0
   14.6203   20.4640   13.8933 P   0  0  0  0  0  0  0  0  0  0  0  0
   11.1783   13.7382   12.6237 C   0  0  0  0  0  0  0  0  0  0  0  0
   13.1859   16.3388   13.6301 C   0  0  0  0  0  0  0  0  0  0  0  0
   11.3143   14.5817   10.4311 O   0  0  0  0  0  0  0  0  0  0  0  0
   12.0001   17.9488   15.4556 P   0  0  0  0  0  0  0  0  0  0  0  0
   11.4207   17.7265   16.7984 O   0  0  0  0  0  0  0  0  0  0  0  0
   13.6107   18.1062   15.6843 O   0  0  0  0  0  0  0  0  0  0  0  0
    8.4668   12.3359   14.4019 C   0  0  0  0  0  0  0  0  0  0  0  0
   14.1850   19.3575   16.5048 P   0  0  0  0  0  0  0  0  0  0  0  0
    7.8061   10.6689   13.0649 N   0  0  0  0  0  0  0  0  0  0  0  0
   11.2716   17.0818   11.3773 O   0  0  0  0  0  0  0  0  0  0  0  0
   10.1249   13.3138   13.5600 N   0  0  0  0  0  0  0  0  0  0  0  0
    8.7928   13.3273   15.2607 N   0  0  0  0  0  0  0  0  0  0  0  0
   15.1848   18.8053   17.5395 O   0  0  0  0  0  0  0  0  0  0  0  0
    6.4894   11.3654   15.0390 N   0  0  0  0  0  0  0  0  0  0  0  0
  1 20  1  0
  2 24  1  0
  3 16  1  0
  4 11  1  0
  4 13  1  0
  4 18  1  0
  5 16  1  0
  6 16  2  0
  7 23  4  0
  7 25  4  0
  7 30  1  0
  8 16  1  0
  8 24  1  0
  9 13  1  0
  9 17  1  0
  9 19  1  0
 10 14  4  0
 10 23  4  0
 10 27  4  0
 11 17  1  0
 12 18  1  0
 12 20  1  0
 13 26  1  0
 14 25  4  0
 15 27  4  0
 15 28  4  0
 17 27  1  0
 20 21  2  0
 20 22  1  0
 22 24  1  0
 23 28  4  0
 24 29  2  0
M  END
$$$$
