
     RDKit          3D

 12 11  0  0  0  0  0  0  0  0999 V2000
    7.8311    9.3125   21.5351 C   0  0  0  0  0  0  0  0  0  0  0  0
   11.4664    8.4057   19.5954 C   0  0  0  0  0  0  0  0  0  0  0  0
   12.2542    8.6289   17.0466 C   0  0  0  0  0  0  0  0  0  0  0  0
    5.0028    9.5483   23.7866 C   0  0  0  0  0  0  0  0  0  0  0  0
   10.4343    8.6133   20.7481 C   0  0  0  0  0  0  0  0  0  0  0  0
    4.1755    9.6888   24.8234 C   0  0  0  0  0  0  0  0  0  0  0  0
    3.2345    9.7773   26.0512 C   0  0  0  0  0  0  0  0  0  0  0  0
   12.5008    7.4070   19.7238 O   0  0  0  0  0  0  0  0  0  0  0  0
    6.0596   10.4607   23.1868 C   0  0  0  0  0  0  0  0  0  0  0  0
    9.2577    9.7018   20.8081 C   0  0  0  0  0  0  0  0  0  0  0  0
    7.4004    9.8238   22.9468 C   0  0  0  0  0  0  0  0  0  0  0  0
   11.3822    9.2241   18.2433 C   0  0  0  0  0  0  0  0  0  0  0  0
  1 10  1  0
  1 11  1  0
  2  5  1  0
  2  8  1  0
  2 12  1  0
  3 12  1  0
  4  6  2  3
  4  9  1  0
  5 10  1  0
  6  7  1  0
  9 11  1  0
M  END
$$$$
