
     RDKit          3D

 17 19  0  0  0  0  0  0  0  0999 V2000
    3.5049    9.7142   25.8199 N   0  0  0  0  0  0  0  0  0  0  0  0
    9.3356    7.7826   20.2087 N   0  0  0  0  0  0  0  0  0  0  0  0
    6.8004   10.5101   24.2200 C   0  0  0  0  0  0  0  0  0  0  0  0
    4.9269    8.6882   23.4261 S   0  0  0  0  0  0  0  0  0  0  0  0
   11.8935    8.3172   18.3884 C   0  0  0  0  0  0  0  0  0  0  0  0
   10.9088    9.2270   20.7889 N   0  0  0  0  0  0  0  0  0  0  0  0
    8.4700    9.5377   21.6812 N   0  0  0  0  0  0  0  0  0  0  0  0
    7.0992    9.0498   21.9442 C   0  0  0  0  0  0  0  0  0  0  0  0
    6.3578    9.5278   23.2447 C   0  0  0  0  0  0  0  0  0  0  0  0
    4.5736    9.5849   24.7611 C   0  0  0  0  0  0  0  0  0  0  0  0
    9.5455    9.0294   20.9271 C   0  0  0  0  0  0  0  0  0  0  0  0
   10.1906    8.0952   18.7291 C   0  0  0  0  0  0  0  0  0  0  0  0
   10.9955    8.2032   17.0830 C   0  0  0  0  0  0  0  0  0  0  0  0
    5.6022   10.5190   25.0752 N   0  0  0  0  0  0  0  0  0  0  0  0
   13.0452    8.9614   20.1974 C   0  0  0  0  0  0  0  0  0  0  0  0
   13.1767    8.3533   17.5442 O   0  0  0  0  0  0  0  0  0  0  0  0
   11.8970    8.8310   19.8851 C   0  0  0  0  0  0  0  0  0  0  0  0
  1 10  1  0
  2 11  2  0
  2 12  1  0
  3  9  2  0
  3 14  1  0
  4  9  1  0
  4 10  1  0
  5 12  1  0
  5 13  1  0
  5 16  1  0
  5 17  1  0
  6 11  1  0
  6 17  2  0
  7  8  1  0
  7 11  1  0
  8  9  1  0
 10 14  2  0
 12 13  1  0
 15 17  1  0
M  END
$$$$
