
     RDKit          3D

 19 21  0  0  0  0  0  0  0  0999 V2000
    4.7814    9.5823   23.8791 C   0  0  0  0  0  0  0  0  0  0  0  0
    9.8961    8.4573   20.6384 C   0  0  0  0  0  0  0  0  0  0  0  0
   10.0591    9.8920   20.5690 C   0  0  0  0  0  0  0  0  0  0  0  0
    4.7955   10.6910   23.1356 C   0  0  0  0  0  0  0  0  0  0  0  0
   11.9529   10.0352   18.6194 C   0  0  0  0  0  0  0  0  0  0  0  0
   11.0407    7.7136   20.1045 C   0  0  0  0  0  0  0  0  0  0  0  0
   12.9012    8.4175   16.7989 Cl  0  0  0  0  0  0  0  0  0  0  0  0
    3.5957    9.2624   24.7298 C   0  0  0  0  0  0  0  0  0  0  0  0
    2.5936    9.9926   26.9402 C   0  0  0  0  0  0  0  0  0  0  0  0
    6.8197    9.5944   22.5249 C   0  0  0  0  0  0  0  0  0  0  0  0
    3.6846    9.6328   26.0838 N   0  0  0  0  0  0  0  0  0  0  0  0
    8.9913   10.4243   21.2359 N   0  0  0  0  0  0  0  0  0  0  0  0
    8.7436    8.1201   21.3660 N   0  0  0  0  0  0  0  0  0  0  0  0
    6.1589    8.6125   23.6122 S   0  0  0  0  0  0  0  0  0  0  0  0
   12.1485    8.7911   18.1667 C   0  0  0  0  0  0  0  0  0  0  0  0
   11.1150   10.4128   19.6171 C   0  0  0  0  0  0  0  0  0  0  0  0
    8.1254    9.3484   21.7754 C   0  0  0  0  0  0  0  0  0  0  0  0
   11.5911    7.8713   18.9316 C   0  0  0  0  0  0  0  0  0  0  0  0
    5.9663   10.7029   22.3601 C   0  0  0  0  0  0  0  0  0  0  0  0
  1  4  4  0
  1  8  1  0
  1 14  4  0
  2  3  4  0
  2  6  4  0
  2 13  4  0
  3 12  4  0
  3 16  4  0
  4 19  4  0
  5 15  4  0
  5 16  4  0
  6 18  4  0
  7 15  1  0
  8 11  1  0
  9 11  1  0
 10 14  4  0
 10 17  1  0
 10 19  4  0
 12 17  4  0
 13 17  4  0
 15 18  4  0
M  END
$$$$
