
     RDKit          3D

 45 49  0  0  0  0  0  0  0  0999 V2000
   -3.4899   16.9647  -24.6497 C   0  0  0  0  0  0  0  0  0  0  0  0
   -1.3584   15.1187  -28.4764 C   0  0  0  0  0  0  0  0  0  0  0  0
   -2.3272   10.3157  -30.0760 C   0  0  0  0  0  0  0  0  0  0  0  0
   -1.7020   11.5460  -26.6817 C   0  0  0  0  0  0  0  0  0  0  0  0
   -2.7154   16.1738  -26.7543 C   0  0  0  0  0  0  0  0  0  0  0  0
    2.4887   17.5016  -27.5166 C   0  0  0  0  0  0  0  0  0  0  0  0
    1.4493   19.6935  -27.3790 C   0  0  0  0  0  0  0  0  0  0  0  0
    1.5354   17.8023  -29.3605 C   0  0  2  0  0  0  0  0  0  0  0  0
   -2.1982   10.3565  -28.6873 C   0  0  0  0  0  0  0  0  0  0  0  0
   -1.7905   17.1148  -26.7613 C   0  0  0  0  0  0  0  0  0  0  0  0
    3.8200   18.2171  -30.1675 C   0  0  0  0  0  0  0  0  0  0  0  0
   -0.5412   19.9901  -25.6949 C   0  0  0  0  0  0  0  0  0  0  0  0
   -1.4020   19.4283  -24.5027 C   0  0  2  0  0  0  0  0  0  0  0  0
   -0.5307   17.2523  -22.2963 C   0  0  0  0  0  0  0  0  0  0  0  0
    0.8078   16.4956  -29.1316 C   0  0  0  0  0  0  0  0  0  0  0  0
   -0.7275   13.6500  -28.7287 C   0  0  0  0  0  0  0  0  0  0  0  0
   -0.7771   17.1147  -27.6027 N   0  0  0  0  0  0  0  0  0  0  0  0
    2.1343   18.2939  -31.7753 F   0  0  0  0  0  0  0  0  0  0  0  0
   -4.3975   18.0026  -24.3223 C   0  0  0  0  0  0  0  0  0  0  0  0
   -3.2498   13.1364  -28.7981 C   0  0  0  0  0  0  0  0  0  0  0  0
   -3.8660   16.2710  -25.8641 C   0  0  0  0  0  0  0  0  0  0  0  0
   -1.8728   12.7185  -28.8788 C   0  0  2  0  0  0  0  0  0  0  0  0
   -1.1459   10.4787  -30.9393 C   0  0  0  0  0  0  0  0  0  0  0  0
   -2.3115    9.2356  -26.6370 C   0  0  0  0  0  0  0  0  0  0  0  0
   -3.4698   14.0188  -27.6491 C   0  0  0  0  0  0  0  0  0  0  0  0
   -2.5066   15.1280  -27.5993 C   0  0  0  0  0  0  0  0  0  0  0  0
    0.0269   18.6578  -22.1672 C   0  0  0  0  0  0  0  0  0  0  0  0
    2.5861   17.6347  -30.6084 C   0  0  0  0  0  0  0  0  0  0  0  0
    0.4297   15.9535  -29.9309 O   0  0  0  0  0  0  0  0  0  0  0  0
   -2.5017    8.1094  -25.9063 F   0  0  0  0  0  0  0  0  0  0  0  0
   -2.4481    9.2217  -27.9730 C   0  0  0  0  0  0  0  0  0  0  0  0
   -2.8386    8.1084  -28.5881 F   0  0  0  0  0  0  0  0  0  0  0  0
   -1.7675   11.5154  -28.0654 C   0  0  0  0  0  0  0  0  0  0  0  0
    1.7866   18.3183  -27.9462 C   0  0  2  0  0  0  0  0  0  0  0  0
   -1.3341   12.6713  -26.0391 F   0  0  0  0  0  0  0  0  0  0  0  0
    2.8017   16.3382  -30.9281 F   0  0  0  0  0  0  0  0  0  0  0  0
   -3.4563   10.0858  -30.5869 C   0  0  0  0  0  0  0  0  0  0  0  0
   -4.1196   19.1965  -25.0652 C   0  0  0  0  0  0  0  0  0  0  0  0
   -2.8312   20.0594  -24.5688 C   0  0  0  0  0  0  0  0  0  0  0  0
   -0.4918   16.2043  -28.4517 C   0  0  0  0  0  0  0  0  0  0  0  0
    1.1982   19.0288  -29.7348 C   0  0  0  0  0  0  0  0  0  0  0  0
   -0.5593   19.6479  -23.1794 C   0  0  0  0  0  0  0  0  0  0  0  0
   -0.3142   16.2317  -21.2705 C   0  0  0  0  0  0  0  0  0  0  0  0
   -1.9584   10.3902  -25.9830 C   0  0  0  0  0  0  0  0  0  0  0  0
    0.6061   19.3474  -26.1357 C   0  0  0  0  0  0  0  0  0  0  0  0
  1 19  1  0
  1 21  1  0
  2 16  1  0
  2 26  1  0
  2 40  2  0
  3  9  1  0
  3 23  1  0
  3 37  2  0
  4 33  2  0
  4 35  1  0
  4 44  1  0
  5 10  1  0
  5 21  1  0
  5 26  2  0
 34  6  1  1
  7 34  1  0
  7 45  1  0
  8 15  1  0
  8 28  1  6
  8 34  1  0
  8 41  1  0
  9 31  2  0
  9 33  1  0
 10 17  2  0
 11 28  1  0
 12 13  1  0
 12 45  2  3
 13 39  1  0
 13 42  1  1
 14 27  1  0
 14 43  1  0
 15 29  2  0
 15 40  1  0
 16 22  1  0
 17 40  1  0
 18 28  1  0
 19 38  1  0
 20 22  1  0
 20 25  1  0
 22 33  1  1
 24 30  1  0
 24 31  1  0
 24 44  2  0
 25 26  1  0
 27 42  1  0
 28 36  1  0
 31 32  1  0
 34 41  1  0
 38 39  1  0
M  END
