
     RDKit          3D

 36 39  0  0  0  0  0  0  0  0999 V2000
    3.1742   26.8035   45.7299 C   0  0  0  0  0  0  0  0  0  0  0  0
    3.2829   28.1093   50.3710 C   0  0  0  0  0  0  0  0  0  0  0  0
    4.7020   28.0289   53.6257 C   0  0  0  0  0  0  0  0  0  0  0  0
    6.9722   23.6208   44.4103 C   0  0  0  0  0  0  0  0  0  0  0  0
    3.4207   28.3701   52.8281 C   0  0  0  0  0  0  0  0  0  0  0  0
    2.0144   28.1469   49.5948 C   0  0  0  0  0  0  0  0  0  0  0  0
    0.9343   27.7169   45.5283 C   0  0  0  0  0  0  0  0  0  0  0  0
    4.5218   28.4843   49.6354 C   0  0  0  0  0  0  0  0  0  0  0  0
    1.7641   26.6149   45.4940 C   0  0  0  0  0  0  0  0  0  0  0  0
    3.1395   26.7905   51.2540 C   0  0  0  0  0  0  0  0  0  0  0  0
    4.8513   31.3956   55.2628 C   0  0  0  0  0  0  0  0  0  0  0  0
    2.8429   29.2609   45.7026 C   0  0  0  0  0  0  0  0  0  0  0  0
    5.1011   29.3440   54.0547 C   0  0  0  0  0  0  0  0  0  0  0  0
    7.4023   24.9816   45.0462 C   0  0  0  0  0  0  0  0  0  0  0  0
    5.7245   26.5514   48.5275 C   0  0  0  0  0  0  0  0  0  0  0  0
    6.7224   26.4464   45.3284 C   0  0  0  0  0  0  0  0  0  0  0  0
    2.9161   26.4798   52.7070 N   0  0  0  0  0  0  0  0  0  0  0  0
    1.4585   29.1062   45.4436 C   0  0  0  0  0  0  0  0  0  0  0  0
    5.3340   26.0993   45.9815 N   0  0  0  0  0  0  0  0  0  0  0  0
    5.8614   26.1547   44.1838 C   0  0  0  0  0  0  0  0  0  0  0  0
    6.0023   31.9173   54.6813 C   0  0  0  0  0  0  0  0  0  0  0  0
    6.2634   29.8938   53.5022 C   0  0  0  0  0  0  0  0  0  0  0  0
    4.1328   25.6370   45.8881 C   0  0  0  0  0  0  0  0  0  0  0  0
    4.4116   30.1163   54.9765 C   0  0  0  0  0  0  0  0  0  0  0  0
    2.9089   27.2026   52.1533 N   0  0  0  0  0  0  0  0  0  0  0  0
    3.6787   28.1312   45.8188 C   0  0  0  0  0  0  0  0  0  0  0  0
    1.1236   29.2016   49.9672 C   0  0  0  0  0  0  0  0  0  0  0  0
    1.0970   25.3823   45.4185 O   0  0  0  0  0  0  0  0  0  0  0  0
    4.1883   32.3430   56.2024 C   0  0  0  0  0  0  0  0  0  0  0  0
    3.9094   24.5242   45.9328 O   0  0  0  0  0  0  0  0  0  0  0  0
    6.0608   25.8165   47.1947 C   0  0  0  0  0  0  0  0  0  0  0  0
    6.7269   31.1727   53.7740 C   0  0  0  0  0  0  0  0  0  0  0  0
    6.5456   22.8233   45.2679 O   0  0  0  0  0  0  0  0  0  0  0  0
    4.8837   27.6185   48.5351 N   0  0  0  0  0  0  0  0  0  0  0  0
    6.7369   23.4782   43.2137 O   0  0  0  0  0  0  0  0  0  0  0  0
    6.2793   26.0650   49.5551 O   0  0  0  0  0  0  0  0  0  0  0  0
  1  9  1  0
  1 23  1  0
  1 26  2  0
  2  6  1  0
  2  8  1  0
  2 10  1  0
  3  5  1  0
  3 13  1  0
  4 14  1  0
  4 33  2  0
  4 35  1  0
  5 25  1  0
  6 27  1  0
  7  9  2  0
  7 18  1  0
  8 34  1  0
  9 28  1  0
 10 17  1  0
 10 25  1  0
 11 21  1  0
 11 24  2  0
 11 29  1  0
 12 18  2  0
 12 26  1  0
 13 22  2  0
 13 24  1  0
 14 16  1  0
 15 31  1  0
 15 34  1  0
 15 36  2  0
 16 19  1  0
 16 20  1  0
 17 25  1  0
 19 20  1  0
 19 23  1  0
 19 31  1  0
 21 32  2  0
 22 32  1  0
 23 30  2  0
M  END
$$$$
