
     RDKit          3D

 25 27  0  0  0  0  0  0  0  0999 V2000
   -3.9708   -0.5148    1.0065 C   0  0  0  0  0  0  0  0  0  0  0  0
    0.6356   -1.6255   -1.4043 C   0  0  1  0  0  0  0  0  0  0  0  0
   -0.6671    0.5640   -1.4245 C   0  0  0  0  0  0  0  0  0  0  0  0
    2.6436   -0.9714   -0.1286 N   0  0  0  0  0  0  0  0  0  0  0  0
   -2.6263    1.0490   -0.4149 C   0  0  0  0  0  0  0  0  0  0  0  0
   -5.0479   -0.7880    1.8570 C   0  0  0  0  0  0  0  0  0  0  0  0
    3.5711   -2.2773    1.5833 O   0  0  0  0  0  0  0  0  0  0  0  0
    1.7899    0.4840   -1.9472 C   0  0  0  0  0  0  0  0  0  0  0  0
    3.7579   -1.4178    0.6785 C   0  0  0  0  0  0  0  0  0  0  0  0
    5.3808    0.2111    2.5958 O   0  0  0  0  0  0  0  0  0  0  0  0
   -5.7619    1.5167    1.6958 C   0  0  0  0  0  0  0  0  0  0  0  0
    5.6087    1.5577    0.7497 O   0  0  0  0  0  0  0  0  0  0  0  0
    5.3836    0.3180    1.3400 C   0  0  0  0  0  0  0  0  0  0  0  0
    0.5112   -0.2023   -1.7518 N   0  0  0  0  0  0  0  0  0  0  0  0
   -4.6877    1.7952    0.8453 C   0  0  0  0  0  0  0  0  0  0  0  0
    1.3844   -1.7389   -0.0752 C   0  0  0  0  0  0  0  0  0  0  0  0
   -0.6161   -2.2543   -1.3130 O   0  0  0  0  0  0  0  0  0  0  0  0
   -5.9432    0.2279    2.1999 C   0  0  0  0  0  0  0  0  0  0  0  0
   -5.2747   -2.4072    2.4930 Cl  0  0  0  0  0  0  0  0  0  0  0  0
    5.1515   -0.8875    0.4844 C   0  0  0  0  0  0  0  0  0  0  0  0
   -1.0391    2.0807   -2.0486 S   0  0  0  0  0  0  0  0  0  0  0  0
   -1.6175    0.1446   -0.5613 N   0  0  0  0  0  0  0  0  0  0  0  0
    2.5991    0.4110   -0.6479 C   0  0  0  0  0  0  0  0  0  0  0  0
   -3.7786    0.7799    0.4851 C   0  0  0  0  0  0  0  0  0  0  0  0
   -2.4740    2.2096   -1.1813 C   0  0  0  0  0  0  0  0  0  0  0  0
  1  6  2  0
  1 24  1  0
  2 14  1  0
  2 16  1  0
  2 17  1  1
  3 14  1  0
  3 21  1  0
  3 22  2  0
  4  9  1  0
  4 16  1  0
  4 23  1  0
  5 22  1  0
  5 24  1  0
  5 25  2  0
  6 18  1  0
  6 19  1  0
  7  9  2  0
  8 14  1  0
  8 23  1  0
  9 20  1  0
 10 13  2  0
 11 15  1  0
 11 18  2  0
 12 13  1  0
 13 20  1  0
 15 24  2  0
 21 25  1  0
M  END
