
     RDKit          3D

 23 24  0  0  0  0  0  0  0  0999 V2000
   -5.8860    0.1517    0.5882 C   0  0  0  0  0  0  0  0  0  0  0  0
   -4.1516   -1.3898    1.6737 C   0  0  0  0  0  0  0  0  0  0  0  0
    2.3900   -3.8993   -1.1327 C   0  0  0  0  0  0  0  0  0  0  0  0
   -4.7066    1.1101   -0.9878 N   0  0  0  0  0  0  0  0  0  0  0  0
    3.9540   -1.5568   -0.2545 C   0  0  0  0  0  0  0  0  0  0  0  0
    2.5495   -1.5357   -0.3134 C   0  0  0  0  0  0  0  0  0  0  0  0
   -4.6137   -0.3734    0.6781 C   0  0  0  0  0  0  0  0  0  0  0  0
   -7.0600    1.7961   -0.8743 C   0  0  0  0  0  0  0  0  0  0  0  0
   -2.4813    0.0546   -0.7060 C   0  0  0  0  0  0  0  0  0  0  0  0
    4.2177    3.0966    1.3424 C   0  0  0  0  0  0  0  0  0  0  0  0
   -0.3687   -1.2209   -0.2923 N   0  0  0  0  0  0  0  0  0  0  0  0
   -3.8980    0.2434   -0.3438 C   0  0  0  0  0  0  0  0  0  0  0  0
    4.0291    0.6980    0.5173 C   0  0  0  0  0  0  0  0  0  0  0  0
   -5.8973    1.0507   -0.4127 N   0  0  0  0  0  0  0  0  0  0  0  0
    0.3973   -0.2246    0.0347 C   0  0  0  0  0  0  0  0  0  0  0  0
    2.6245    0.7620    0.4737 C   0  0  0  0  0  0  0  0  0  0  0  0
   -1.9080    0.9370   -1.4000 O   0  0  0  0  0  0  0  0  0  0  0  0
    1.8166   -2.6583   -0.7341 O   0  0  0  0  0  0  0  0  0  0  0  0
   -1.7731   -1.1406   -0.3421 N   0  0  0  0  0  0  0  0  0  0  0  0
    1.8753   -0.3512    0.0606 C   0  0  0  0  0  0  0  0  0  0  0  0
    4.6422   -0.4604    0.1515 N   0  0  0  0  0  0  0  0  0  0  0  0
    6.2946    1.6893    0.9609 C   0  0  0  0  0  0  0  0  0  0  0  0
    4.8336    1.8262    0.9390 N   0  0  0  0  0  0  0  0  0  0  0  0
  1  7  2  0
  1 14  1  0
  2  7  1  0
  3 18  1  0
  4 12  2  0
  4 14  1  0
  5  6  1  0
  5 21  2  0
  6 18  1  0
  6 20  2  0
  7 12  1  0
  8 14  1  0
  9 12  1  0
  9 17  2  0
  9 19  1  0
 10 23  1  0
 11 15  2  3
 11 19  1  0
 13 16  2  0
 13 21  1  0
 13 23  1  0
 15 20  1  0
 16 20  1  0
 22 23  1  0
M  END
