
     RDKit          3D

 27 30  0  0  0  0  0  0  0  0999 V2000
   -6.0835   -0.1148   -1.3202 C   0  0  0  0  0  0  0  0  0  0  0  0
    3.3680    1.3511   -0.4406 C   0  0  0  0  0  0  0  0  0  0  0  0
    4.7540    1.0766    0.0108 C   0  0  0  0  0  0  0  0  0  0  0  0
    7.1571    1.3896   -0.2594 C   0  0  0  0  0  0  0  0  0  0  0  0
   -1.4310    0.4214    0.2971 N   0  0  0  0  0  0  0  0  0  0  0  0
   -0.9107   -2.3622    0.2718 O   0  0  0  0  0  0  0  0  0  0  0  0
    2.5077   -1.0077   -0.3428 C   0  0  0  0  0  0  0  0  0  0  0  0
   -3.8506   -0.8326   -2.0879 N   0  0  0  0  0  0  0  0  0  0  0  0
    2.2669    0.3731   -0.2638 C   0  0  0  0  0  0  0  0  0  0  0  0
   -5.9732    0.9944    0.9554 C   0  0  0  0  0  0  0  0  0  0  0  0
   -4.6263   -0.1850   -1.2307 N   0  0  0  0  0  0  0  0  0  0  0  0
   -0.1058   -0.0838    0.0766 C   0  0  0  0  0  0  0  0  0  0  0  0
   -2.5697   -0.0046   -0.4647 C   0  0  0  0  0  0  0  0  0  0  0  0
   -4.4498    1.1784    0.8639 C   0  0  0  0  0  0  0  0  0  0  0  0
   -3.8865    0.3150   -0.2247 C   0  0  0  0  0  0  0  0  0  0  0  0
    3.1165    2.4563   -0.9947 O   0  0  0  0  0  0  0  0  0  0  0  0
    1.4637   -1.9200   -0.1791 C   0  0  0  0  0  0  0  0  0  0  0  0
    0.1502   -1.4693    0.0498 C   0  0  0  0  0  0  0  0  0  0  0  0
    0.9534    0.8242   -0.0602 C   0  0  0  0  0  0  0  0  0  0  0  0
    7.3872    0.6064    0.8754 C   0  0  0  0  0  0  0  0  0  0  0  0
   -6.6270    1.0208   -0.4367 C   0  0  0  0  0  0  0  0  0  0  0  0
    6.3118    0.0676    1.5851 C   0  0  0  0  0  0  0  0  0  0  0  0
    8.2388    1.9260   -0.9543 O   0  0  0  0  0  0  0  0  0  0  0  0
    5.0014    0.3041    1.1607 C   0  0  0  0  0  0  0  0  0  0  0  0
   -0.7920   -3.7807    0.2506 C   0  0  0  0  0  0  0  0  0  0  0  0
   -2.5779   -0.7266   -1.6477 C   0  0  0  0  0  0  0  0  0  0  0  0
    5.8431    1.6286   -0.6873 C   0  0  0  0  0  0  0  0  0  0  0  0
  1 11  1  0
  1 21  1  0
  2  3  1  0
  2  9  1  0
  2 16  2  0
  3 24  2  0
  3 27  1  0
  4 20  1  0
  4 23  1  0
  4 27  2  0
  5 12  1  0
  5 13  1  0
  6 18  1  0
  6 25  1  0
  7  9  1  0
  7 17  2  0
  8 11  1  0
  8 26  2  0
  9 19  2  0
 10 14  1  0
 10 21  1  0
 11 15  1  0
 12 18  2  0
 12 19  1  0
 13 15  2  0
 13 26  1  0
 14 15  1  0
 17 18  1  0
 20 22  2  0
 22 24  1  0
M  END
