
     RDKit          3D

 26 29  0  0  0  0  0  0  0  0999 V2000
   -7.0006    1.8173    0.6286 N   0  0  0  0  0  0  0  0  0  0  0  0
    2.5814    1.1770   -0.3540 C   0  0  0  0  0  0  0  0  0  0  0  0
   -0.8887   -1.1330    0.4399 C   0  0  0  0  0  0  0  0  0  0  0  0
   -7.9265    0.7648    0.6983 C   0  0  0  0  0  0  0  0  0  0  0  0
    7.6770    1.7618    2.1653 Cl  0  0  0  0  0  0  0  0  0  0  0  0
    4.9107   -0.0324   -0.1829 C   0  0  0  0  0  0  0  0  0  0  0  0
    6.9131    0.7262    0.9732 C   0  0  0  0  0  0  0  0  0  0  0  0
   -1.6468   -0.4157   -0.5044 C   0  0  0  0  0  0  0  0  0  0  0  0
   -3.0362   -0.3243   -0.3775 C   0  0  0  0  0  0  0  0  0  0  0  0
   -3.6982   -0.9471    0.6971 C   0  0  0  0  0  0  0  0  0  0  0  0
    2.7387   -1.0372   -0.6168 N   0  0  0  0  0  0  0  0  0  0  0  0
    1.3385   -0.6218   -0.7204 C   0  0  2  0  0  0  0  0  0  0  0  0
   -2.9400   -1.6637    1.6348 C   0  0  0  0  0  0  0  0  0  0  0  0
    1.3566    0.8309   -0.5489 N   0  0  0  0  0  0  0  0  0  0  0  0
    5.5297    0.7933    0.7715 C   0  0  0  0  0  0  0  0  0  0  0  0
    7.6852   -0.1739    0.2323 C   0  0  0  0  0  0  0  0  0  0  0  0
    2.9903    2.5419   -0.2653 N   0  0  0  0  0  0  0  0  0  0  0  0
   -5.1284   -0.8732    0.8579 N   0  0  0  0  0  0  0  0  0  0  0  0
   -7.4100   -0.3499    0.3364 N   0  0  0  0  0  0  0  0  0  0  0  0
   -5.7659    1.3444    0.1685 N   0  0  0  0  0  0  0  0  0  0  0  0
   -6.0113   -0.1019   -0.0194 C   0  0  1  0  0  0  0  0  0  0  0  0
    7.0747   -1.0125   -0.7034 C   0  0  0  0  0  0  0  0  0  0  0  0
    3.4497    0.0159   -0.3935 C   0  0  0  0  0  0  0  0  0  0  0  0
    5.6930   -0.9483   -0.9068 C   0  0  0  0  0  0  0  0  0  0  0  0
   -1.5515   -1.7550    1.5081 C   0  0  0  0  0  0  0  0  0  0  0  0
    0.5442   -1.2459    0.3392 N   0  0  0  0  0  0  0  0  0  0  0  0
  1  4  1  0
  1 20  1  0
  2 14  2  0
  2 17  1  0
  2 23  1  0
  3  8  1  0
  3 25  2  0
  3 26  1  0
  4 19  2  0
  5  7  1  0
  6 15  1  0
  6 23  1  0
  6 24  2  0
  7 15  2  0
  7 16  1  0
  8  9  2  0
  9 10  1  0
 10 13  2  0
 10 18  1  0
 11 12  1  0
 11 23  2  0
 12 14  1  0
 12 26  1  1
 13 25  1  0
 16 22  2  0
 21 18  1  1
 19 21  1  0
 20 21  1  0
 22 24  1  0
M  END
