
     RDKit          3D

 26 27  0  0  0  0  0  0  0  0999 V2000
   92.6568   45.7712   68.4791 N   0  0  0  0  0  0  0  0  0  0  0  0
   96.9422   44.4065   74.3463 O   0  0  0  0  0  0  0  0  0  0  0  0
   90.7807   44.9298   72.6439 N   0  0  0  0  0  0  0  0  0  0  0  0
   94.0097   49.8422   72.0584 C   0  0  1  0  0  0  0  0  0  0  0  0
   95.7273   49.3013   73.6522 C   0  0  2  0  0  0  0  0  0  0  0  0
   93.7284   46.6107   70.3554 N   0  0  0  0  0  0  0  0  0  0  0  0
   95.4367   50.8194   73.7305 C   0  0  2  0  0  0  0  0  0  0  0  0
   93.7630   46.7679   71.6825 C   0  0  0  0  0  0  0  0  0  0  0  0
   94.9223   50.0296   70.9650 O   0  0  0  0  0  0  0  0  0  0  0  0
   99.0528   45.4830   75.0829 O   0  0  0  0  0  0  0  0  0  0  0  0
   98.0351   45.4727   73.8554 P   0  0  0  0  0  0  0  0  0  0  0  0
   98.6328   45.0736   72.5515 O   0  0  0  0  0  0  0  0  0  0  0  0
   92.8113   46.2108   72.5058 C   0  0  0  0  0  0  0  0  0  0  0  0
   95.3213   51.3044   75.0692 O   0  0  0  0  0  0  0  0  0  0  0  0
   94.4814   48.6905   72.9644 C   0  0  2  0  0  0  0  0  0  0  0  0
   94.1024   51.0331   73.0027 C   0  0  1  0  0  0  0  0  0  0  0  0
   92.6983   45.9308   69.8494 C   0  0  0  0  0  0  0  0  0  0  0  0
   97.1395   46.9856   76.4596 O   0  0  0  0  0  0  0  0  0  0  0  0
   91.8064   45.5029   71.8909 C   0  0  0  0  0  0  0  0  0  0  0  0
   96.0048   48.8060   74.9574 O   0  0  0  0  0  0  0  0  0  0  0  0
   94.8502   47.4989   72.1786 N   0  0  0  0  0  0  0  0  0  0  0  0
   96.4371   47.2749   75.1699 P   0  0  2  0  0  0  0  0  0  0  0  0
   91.7313   45.3563   70.5665 N   0  0  0  0  0  0  0  0  0  0  0  0
   95.0668   46.4622   75.0266 O   0  0  0  0  0  0  0  0  0  0  0  0
   94.0780   52.2633   72.2833 O   0  0  0  0  0  0  0  0  0  0  0  0
   97.2873   46.8686   73.8952 O   0  0  0  0  0  0  0  0  0  0  0  0
  1 17  1  0
  2 11  1  0
  3 19  1  0
  4  9  1  6
  4 15  1  0
  4 16  1  0
  5  7  1  0
  5 15  1  0
  5 20  1  1
  6  8  2  0
  6 17  1  0
  7 14  1  1
  7 16  1  0
  8 13  1  0
  8 21  1  0
 10 11  1  0
 11 12  2  0
 11 26  1  0
 13 19  2  0
 15 21  1  6
 16 25  1  6
 17 23  2  0
 18 22  2  0
 19 23  1  0
 20 22  1  0
 22 24  1  1
 22 26  1  0
M  END
$$$$
