
     RDKit          3D

 13 13  0  0  0  0  0  0  0  0999 V2000
  -23.2292   36.5715  -47.1383 C   0  0  0  0  0  0  0  0  0  0  0  0
  -23.5278   35.6774  -46.1324 C   0  0  0  0  0  0  0  0  0  0  0  0
  -25.4973   34.2538  -44.9724 C   0  0  0  0  0  0  0  0  0  0  0  0
  -24.7127   35.6396  -45.1462 C   0  0  0  0  0  0  0  0  0  0  0  0
  -27.5165   33.1147  -43.7574 C   0  0  0  0  0  0  0  0  0  0  0  0
  -25.5629   36.7279  -45.5001 O   0  0  0  0  0  0  0  0  0  0  0  0
  -27.2656   30.6529  -42.9797 C   0  0  0  0  0  0  0  0  0  0  0  0
  -24.6715   33.2641  -44.1727 C   0  0  0  0  0  0  0  0  0  0  0  0
  -26.7905   34.3710  -44.1575 C   0  0  0  0  0  0  0  0  0  0  0  0
  -21.8730   36.3556  -47.6958 O   0  0  0  0  0  0  0  0  0  0  0  0
  -25.3285   31.9489  -43.9821 C   0  0  0  0  0  0  0  0  0  0  0  0
  -26.8164   31.9817  -43.5238 N   0  0  0  0  0  0  0  0  0  0  0  0
  -22.2062   35.1591  -45.5585 C   0  0  0  0  0  0  0  0  0  0  0  0
  1  2  1  0
  1 10  1  0
  2  4  1  0
  2 13  1  0
  3  4  1  0
  3  8  1  0
  3  9  1  0
  4  6  1  0
  5  9  1  0
  5 12  1  0
  7 12  1  0
  8 11  1  0
 11 12  1  0
M  END
$$$$
