
     RDKit          3D

 20 22  0  0  0  0  0  0  0  0999 V2000
   -4.3453    0.5265   -0.2056 C   0  0  0  0  0  0  0  0  0  0  0  0
    4.2969    0.7379   -0.9606 C   0  0  0  0  0  0  0  0  0  0  0  0
    6.6266   -0.0464   -0.5879 C   0  0  0  0  0  0  0  0  0  0  0  0
   -2.7521   -1.3986    0.9290 C   0  0  0  0  0  0  0  0  0  0  0  0
    3.5021    0.6287    0.2310 N   0  0  0  0  0  0  0  0  0  0  0  0
   -4.1463   -1.5674    0.9338 C   0  0  0  0  0  0  0  0  0  0  0  0
    1.5056   -0.3295    1.2814 C   0  0  0  0  0  0  0  0  0  0  0  0
    1.2478    0.9560   -0.7509 C   0  0  0  0  0  0  0  0  0  0  0  0
   -3.0013    0.7046   -0.2190 N   0  0  0  0  0  0  0  0  0  0  0  0
   -2.1804   -0.2350    0.3464 C   0  0  0  0  0  0  0  0  0  0  0  0
   -6.4601    0.8667   -0.5327 C   0  0  0  0  0  0  0  0  0  0  0  0
   -0.1330    0.7421   -0.7107 C   0  0  0  0  0  0  0  0  0  0  0  0
    0.1254   -0.5465    1.3222 C   0  0  0  0  0  0  0  0  0  0  0  0
   -0.7104   -0.0236    0.3177 C   0  0  0  0  0  0  0  0  0  0  0  0
   -4.9231   -0.5719    0.3536 C   0  0  0  0  0  0  0  0  0  0  0  0
    5.7328    1.1566   -0.8661 C   0  0  0  0  0  0  0  0  0  0  0  0
    3.8229    0.4096   -2.0818 O   0  0  0  0  0  0  0  0  0  0  0  0
    2.0819    0.4034    0.2353 C   0  0  0  0  0  0  0  0  0  0  0  0
   -5.3017    1.4132   -0.7523 N   0  0  0  0  0  0  0  0  0  0  0  0
   -6.3928   -0.4574    0.1914 C   0  0  0  0  0  0  0  0  0  0  0  0
  1  9  1  0
  1 15  2  0
  1 19  1  0
  2  5  1  0
  2 16  1  0
  2 17  2  0
  3 16  1  0
  4  6  2  0
  4 10  1  0
  5 18  1  0
  6 15  1  0
  7 13  2  0
  7 18  1  0
  8 12  1  0
  8 18  2  0
  9 10  2  0
 10 14  1  0
 11 19  2  0
 11 20  1  0
 12 14  2  0
 13 14  1  0
 15 20  1  0
M  END
