
     RDKit          3D

 23 24  0  0  0  0  0  0  0  0999 V2000
   -6.3707   -1.1950   -0.6502 O   0  0  0  0  0  0  0  0  0  0  0  0
    0.7972    1.8966   -1.8956 C   0  0  0  0  0  0  0  0  0  0  0  0
    5.8568   -1.8937    1.3518 N   0  0  0  0  0  0  0  0  0  0  0  0
   -4.7502   -0.1787    0.7616 C   0  0  0  0  0  0  0  0  0  0  0  0
    5.7003   -0.8446    0.3955 C   0  0  0  0  0  0  0  0  0  0  0  0
    1.2812   -0.5122   -0.5613 C   0  0  0  0  0  0  0  0  0  0  0  0
    2.3447    0.1713   -1.1734 C   0  0  0  0  0  0  0  0  0  0  0  0
    4.6264    1.4013    0.5147 C   0  0  0  0  0  0  0  0  0  0  0  0
    4.3947   -0.0986    0.2837 C   0  0  1  0  0  0  0  0  0  0  0  0
   -3.6041   -2.0161   -0.4535 N   0  0  0  0  0  0  0  0  0  0  0  0
   -2.2743    1.0740    1.2010 C   0  0  0  0  0  0  0  0  0  0  0  0
   -0.2586    1.2113   -1.2901 C   0  0  0  0  0  0  0  0  0  0  0  0
   -4.6698    1.0176    1.4932 C   0  0  0  0  0  0  0  0  0  0  0  0
    2.0946    1.3840   -1.8342 C   0  0  0  0  0  0  0  0  0  0  0  0
    3.7469   -0.3778   -1.0882 C   0  0  0  0  0  0  0  0  0  0  0  0
   -3.4412    1.6370    1.7101 C   0  0  0  0  0  0  0  0  0  0  0  0
   -6.0884   -0.7556    0.4967 C   0  0  0  0  0  0  0  0  0  0  0  0
   -3.5615   -0.7666    0.2548 C   0  0  0  0  0  0  0  0  0  0  0  0
   -7.0842   -0.7877    1.5209 N   0  0  0  0  0  0  0  0  0  0  0  0
   -2.3202   -0.1210    0.4666 C   0  0  0  0  0  0  0  0  0  0  0  0
   -1.0949   -0.7246    0.0166 N   0  0  0  0  0  0  0  0  0  0  0  0
   -0.0219    0.0070   -0.6029 C   0  0  0  0  0  0  0  0  0  0  0  0
    6.6610   -0.5528   -0.3673 O   0  0  0  0  0  0  0  0  0  0  0  0
  1 17  2  0
  2 12  1  0
  2 14  2  0
  3  5  1  0
  4 13  2  0
  4 17  1  0
  4 18  1  0
  5  9  1  0
  5 23  2  0
  6  7  2  0
  6 22  1  0
  7 14  1  0
  7 15  1  0
  9  8  1  6
  9 15  1  0
 10 18  1  0
 11 16  2  0
 11 20  1  0
 12 22  2  0
 13 16  1  0
 17 19  1  0
 18 20  2  0
 20 21  1  0
 21 22  1  0
M  END
