
     RDKit          3D

 20 22  0  0  0  0  0  0  0  0999 V2000
    6.3146    0.8897   -1.3655 C   0  0  0  0  0  0  0  0  0  0  0  0
    5.4087    0.6609   -2.2730 N   0  0  0  0  0  0  0  0  0  0  0  0
    2.6572   -0.4072   -0.4224 C   0  0  0  0  0  0  0  0  0  0  0  0
   -1.0251    0.4393   -0.5847 C   0  0  0  0  0  0  0  0  0  0  0  0
    4.4641   -0.1573   -1.6040 C   0  0  0  0  0  0  0  0  0  0  0  0
   -5.3217   -0.3901    0.8331 C   0  0  0  0  0  0  0  0  0  0  0  0
    3.6439   -0.5395    0.4861 C   0  0  0  0  0  0  0  0  0  0  0  0
   -2.9601   -0.5873    0.6108 O   0  0  0  0  0  0  0  0  0  0  0  0
    0.3543    0.4583   -0.8148 C   0  0  0  0  0  0  0  0  0  0  0  0
    3.5353   -0.7122    1.9700 C   0  0  0  0  0  0  0  0  0  0  0  0
   -3.9486    1.6663    0.5308 C   0  0  0  0  0  0  0  0  0  0  0  0
   -4.2671    0.0102   -1.3879 C   0  0  0  0  0  0  0  0  0  0  0  0
    3.1816   -0.0653   -1.7209 N   0  0  0  0  0  0  0  0  0  0  0  0
    5.9725    0.2891   -0.0573 C   0  0  0  0  0  0  0  0  0  0  0  0
   -4.0768    0.1818    0.1329 C   0  0  0  0  0  0  0  0  0  0  0  0
   -1.5861   -0.4914    0.3122 C   0  0  0  0  0  0  0  0  0  0  0  0
    4.8666   -0.3969   -0.2759 C   0  0  0  0  0  0  0  0  0  0  0  0
   -0.7346   -1.3963    0.9583 C   0  0  0  0  0  0  0  0  0  0  0  0
    0.6434   -1.3772    0.7296 C   0  0  0  0  0  0  0  0  0  0  0  0
    1.2032   -0.4362   -0.1477 C   0  0  0  0  0  0  0  0  0  0  0  0
  1  2  2  0
  1 14  1  0
  2  5  1  0
  3  7  2  0
  3 13  1  0
  3 20  1  0
  4  9  2  0
  4 16  1  0
  5 13  2  0
  5 17  1  0
  6 15  1  0
  7 10  1  0
  7 17  1  0
  8 15  1  0
  8 16  1  0
  9 20  1  0
 11 15  1  0
 12 15  1  0
 14 17  2  0
 16 18  2  0
 18 19  1  0
 19 20  2  0
M  END
