
     RDKit          3D

 27 29  0  0  0  0  0  0  0  0999 V2000
   -0.9462   -1.5653    0.6765 C   0  0  1  0  0  0  0  0  0  0  0  0
   -5.1599    0.9253    0.3991 C   0  0  0  0  0  0  0  0  0  0  0  0
   -0.9621   -1.9817    2.0234 O   0  0  0  0  0  0  0  0  0  0  0  0
    6.5169   -0.1600    1.9508 O   0  0  0  0  0  0  0  0  0  0  0  0
    5.8048    0.3056    0.7015 P   0  0  0  0  0  0  0  0  0  0  0  0
   -2.9967    0.7214   -0.4696 C   0  0  0  0  0  0  0  0  0  0  0  0
   -1.3555    0.6563   -1.8167 C   0  0  0  0  0  0  0  0  0  0  0  0
    1.2593   -0.8977    0.1243 C   0  0  1  0  0  0  0  0  0  0  0  0
   -6.0799    0.8471    1.4874 N   0  0  0  0  0  0  0  0  0  0  0  0
    4.3688    0.2864   -2.0841 O   0  0  0  0  0  0  0  0  0  0  0  0
    6.7718   -0.0574   -0.6409 O   0  0  0  0  0  0  0  0  0  0  0  0
   -2.4091    1.0465   -2.5857 N   0  0  0  0  0  0  0  0  0  0  0  0
   -5.6092    1.2963   -0.8443 N   0  0  0  0  0  0  0  0  0  0  0  0
   -5.1903    1.7091   -3.0479 O   0  0  0  0  0  0  0  0  0  0  0  0
   -3.4242    1.0775   -1.7025 C   0  0  0  0  0  0  0  0  0  0  0  0
   -0.8233   -0.0444    0.5656 C   0  0  2  0  0  0  0  0  0  0  0  0
   -1.6816    0.4613   -0.5108 N   0  0  0  0  0  0  0  0  0  0  0  0
    2.9640    1.5687   -0.2883 O   0  0  0  0  0  0  0  0  0  0  0  0
   -4.7621    1.3769   -1.9118 C   0  0  0  0  0  0  0  0  0  0  0  0
   -3.8360    0.6275    0.5935 N   0  0  0  0  0  0  0  0  0  0  0  0
    3.4274    0.1822   -0.6804 P   0  0  1  0  0  0  0  0  0  0  0  0
    5.5657    1.9799    0.8105 O   0  0  0  0  0  0  0  0  0  0  0  0
    0.2790   -2.0493   -0.0563 C   0  0  1  0  0  0  0  0  0  0  0  0
    2.0736   -0.8003   -1.0248 O   0  0  0  0  0  0  0  0  0  0  0  0
    0.5229    0.2964    0.3015 O   0  0  0  0  0  0  0  0  0  0  0  0
    0.7718   -3.2473    0.4856 O   0  0  0  0  0  0  0  0  0  0  0  0
    4.3202   -0.5192    0.5899 O   0  0  0  0  0  0  0  0  0  0  0  0
  1  3  1  1
  1 16  1  0
  1 23  1  0
  2  9  1  0
  2 13  2  0
  2 20  1  0
  4  5  2  0
  5 11  1  0
  5 22  1  0
  5 27  1  0
  6 15  2  0
  6 17  1  0
  6 20  1  0
  7 12  2  0
  7 17  1  0
  8 23  1  0
  8 24  1  6
  8 25  1  0
 21 10  1  6
 12 15  1  0
 13 19  1  0
 14 19  2  0
 15 19  1  0
 16 17  1  6
 16 25  1  0
 18 21  2  0
 21 24  1  0
 21 27  1  0
 23 26  1  1
M  END
