
     RDKit          3D

 23 25  0  0  0  0  0  0  0  0999 V2000
   -2.0041    0.9329    0.4792 C   0  0  0  0  0  0  0  0  0  0  0  0
   -3.0389    1.5825    1.0709 N   0  0  0  0  0  0  0  0  0  0  0  0
    1.5893    0.7369    0.1337 O   0  0  0  0  0  0  0  0  0  0  0  0
    4.8145    0.6335   -0.1121 P   0  0  0  0  0  0  0  0  0  0  0  0
    1.7276   -0.9068    2.3717 O   0  0  0  0  0  0  0  0  0  0  0  0
   -1.0684   -0.9955   -0.7381 C   0  0  2  0  0  0  0  0  0  0  0  0
    0.2671   -0.9999   -2.7749 O   0  0  0  0  0  0  0  0  0  0  0  0
   -4.5059   -0.2215    0.5471 C   0  0  0  0  0  0  0  0  0  0  0  0
    5.1135    2.0643    0.7427 O   0  0  0  0  0  0  0  0  0  0  0  0
    2.5702    0.2235    1.4341 P   0  0  1  0  0  0  0  0  0  0  0  0
    6.2968   -0.0289   -0.5881 O   0  0  0  0  0  0  0  0  0  0  0  0
    4.0061   -0.5003    0.8694 O   0  0  0  0  0  0  0  0  0  0  0  0
    0.0647   -1.0010    0.1058 O   0  0  0  0  0  0  0  0  0  0  0  0
   -0.7251   -0.3175   -2.0460 C   0  0  2  0  0  0  0  0  0  0  0  0
    2.8960    1.4141    2.3082 O   0  0  0  0  0  0  0  0  0  0  0  0
   -5.2138    1.6671    1.6794 O   0  0  0  0  0  0  0  0  0  0  0  0
   -5.8019   -0.8306    0.5717 N   0  0  0  0  0  0  0  0  0  0  0  0
   -3.4286   -0.8758   -0.0590 C   0  0  0  0  0  0  0  0  0  0  0  0
    1.1407   -0.3923   -0.5821 C   0  0  1  0  0  0  0  0  0  0  0  0
    0.6691    0.0633   -1.9448 C   0  0  1  0  0  0  0  0  0  0  0  0
   -4.2787    1.0354    1.1200 C   0  0  0  0  0  0  0  0  0  0  0  0
   -2.1881   -0.3017   -0.0802 N   0  0  0  0  0  0  0  0  0  0  0  0
    3.9997    0.9407   -1.3490 O   0  0  0  0  0  0  0  0  0  0  0  0
  1  2  2  0
  1 22  1  0
  2 21  1  0
  3 10  1  0
 19  3  1  1
  4  9  1  0
  4 11  1  0
  4 12  1  0
  4 23  2  0
 10  5  1  1
  6 13  1  0
  6 14  1  0
  6 22  1  1
 14  7  1  6
 20  7  1  6
  8 17  1  0
  8 18  2  0
  8 21  1  0
 10 12  1  0
 10 15  2  0
 13 19  1  0
 14 20  1  0
 16 21  2  0
 18 22  1  0
 19 20  1  0
M  END
