
     RDKit          3D

 28 30  0  0  0  0  0  0  0  0999 V2000
   -0.3413   -1.6419    0.6719 C   0  0  1  0  0  0  0  0  0  0  0  0
   -6.3692    1.8608    0.0786 O   0  0  0  0  0  0  0  0  0  0  0  0
   -5.6549    2.1747    1.5826 P   0  0  0  0  0  0  0  0  0  0  0  0
   -4.3535   -0.0638   -0.3911 O   0  0  0  0  0  0  0  0  0  0  0  0
   -0.0053   -1.3145    3.0363 O   0  0  0  0  0  0  0  0  0  0  0  0
   -2.8606    2.0229    0.1605 O   0  0  0  0  0  0  0  0  0  0  0  0
    3.0369   -0.6374   -1.3385 C   0  0  0  0  0  0  0  0  0  0  0  0
   -1.4817   -0.7385    0.1924 C   0  0  0  0  0  0  0  0  0  0  0  0
    1.8804    2.7787   -1.9267 N   0  0  0  0  0  0  0  0  0  0  0  0
   -3.5713    0.5919    0.7262 P   0  0  1  0  0  0  0  0  0  0  0  0
    2.6660    1.5877   -1.9629 C   0  0  0  0  0  0  0  0  0  0  0  0
    2.2411   -2.4842    2.5191 O   0  0  0  0  0  0  0  0  0  0  0  0
    2.2615    0.4753   -1.2723 N   0  0  0  0  0  0  0  0  0  0  0  0
    0.5145   -1.9353   -0.4047 O   0  0  0  0  0  0  0  0  0  0  0  0
    1.8873   -1.5547    1.5262 C   0  0  2  0  0  0  0  0  0  0  0  0
    3.8300    1.5634   -2.6908 N   0  0  0  0  0  0  0  0  0  0  0  0
   -4.6078    0.9119    2.0388 O   0  0  0  0  0  0  0  0  0  0  0  0
    3.9256   -2.5541   -1.1113 C   0  0  0  0  0  0  0  0  0  0  0  0
    2.8425   -1.8234   -0.7395 N   0  0  0  0  0  0  0  0  0  0  0  0
   -2.3534   -0.4729    1.2668 O   0  0  0  0  0  0  0  0  0  0  0  0
    5.6780    0.4390   -3.4134 O   0  0  0  0  0  0  0  0  0  0  0  0
    4.6102    0.4446   -2.7468 C   0  0  0  0  0  0  0  0  0  0  0  0
    4.1892   -0.6761   -2.0464 C   0  0  0  0  0  0  0  0  0  0  0  0
   -6.8738    2.3041    2.7493 O   0  0  0  0  0  0  0  0  0  0  0  0
    4.7823   -1.8782   -1.9254 N   0  0  0  0  0  0  0  0  0  0  0  0
    0.4986   -0.9888    1.7658 C   0  0  1  0  0  0  0  0  0  0  0  0
    1.7666   -2.2456    0.1612 C   0  0  2  0  0  0  0  0  0  0  0  0
   -4.8938    3.4809    1.5241 O   0  0  0  0  0  0  0  0  0  0  0  0
  1  8  1  6
  1 14  1  0
  1 26  1  0
  2  3  1  0
  3 17  1  0
  3 24  1  0
  3 28  2  0
  4 10  2  0
 26  5  1  1
 10  6  1  6
  7 13  1  0
  7 19  1  0
  7 23  2  0
  8 20  1  0
  9 11  1  0
 10 17  1  0
 10 20  1  0
 11 13  1  0
 11 16  2  0
 15 12  1  1
 14 27  1  0
 15 26  1  0
 15 27  1  0
 16 22  1  0
 18 19  1  0
 18 25  2  0
 27 19  1  6
 21 22  2  0
 22 23  1  0
 23 25  1  0
M  END
