
     RDKit          3D

 15 14  0  0  0  0  0  0  0  0999 V2000
   28.0942   56.0811   89.1149 O   0  0  0  0  0  0  0  0  0  0  0  0
   25.1308   55.7866   89.1724 C   0  0  0  0  0  0  0  0  0  0  0  0
   22.8419   55.7376   87.2787 O   0  0  0  0  0  0  0  0  0  0  0  0
   26.0059   56.0249   88.0721 O   0  0  0  0  0  0  0  0  0  0  0  0
   27.6264   60.2691   89.8572 O   0  0  0  0  0  0  0  0  0  0  0  0
   22.2712   54.2589   91.9446 N   0  0  0  0  0  0  0  0  0  0  0  0
   28.0472   59.0854   89.1743 C   0  0  1  0  0  0  0  0  0  0  0  0
   26.8310   58.1698   89.0080 C   0  0  0  0  0  0  0  0  0  0  0  0
   24.2383   54.5584   88.8996 C   0  0  2  0  0  0  0  0  0  0  0  0
   24.4967   54.0020   91.6867 O   0  0  0  0  0  0  0  0  0  0  0  0
   27.1524   56.8221   88.3588 C   0  0  1  0  0  0  0  0  0  0  0  0
   23.4004   54.2216   91.1964 C   0  0  0  0  0  0  0  0  0  0  0  0
   23.6386   54.5681   87.4843 C   0  0  0  0  0  0  0  0  0  0  0  0
   23.1542   54.4616   89.8811 N   0  0  0  0  0  0  0  0  0  0  0  0
   28.6617   59.5245   87.8525 C   0  0  0  0  0  0  0  0  0  0  0  0
 11  1  1  1
  2  4  1  0
  9  2  1  1
  3 13  1  0
  4 11  1  0
  5  7  1  0
  6 12  1  0
  7  8  1  0
  7 15  1  6
  8 11  1  0
  9 13  1  0
  9 14  1  0
 10 12  2  0
 12 14  1  0
M  END
$$$$
