
     RDKit          3D

 33 37  0  0  0  0  0  0  0  0999 V2000
   -7.3780  -29.9189   -6.6001 C   0  0  0  0  0  0  0  0  0  0  0  0
   -4.3812  -29.4929   -9.6289 C   0  0  0  0  0  0  0  0  0  0  0  0
   -4.9108  -25.8166   -6.1994 C   0  0  0  0  0  0  0  0  0  0  0  0
   -2.8690  -26.8076   -6.9449 C   0  0  0  0  0  0  0  0  0  0  0  0
   -0.9523  -30.5776  -16.5205 C   0  0  0  0  0  0  0  0  0  0  0  0
   -3.5309  -25.6609   -6.4969 O   0  0  0  0  0  0  0  0  0  0  0  0
   -2.1695  -29.9361  -10.3961 C   0  0  0  0  0  0  0  0  0  0  0  0
   -3.0693  -30.0905  -16.2168 N   0  0  0  0  0  0  0  0  0  0  0  0
   -3.1778  -29.7311  -13.8202 N   0  0  0  0  0  0  0  0  0  0  0  0
   -1.5650  -26.9000   -6.4805 C   0  0  0  0  0  0  0  0  0  0  0  0
   -2.9732  -29.6367  -11.4458 C   0  0  0  0  0  0  0  0  0  0  0  0
   -7.7803  -28.0587   -4.1074 N   0  0  0  0  0  0  0  0  0  0  0  0
   -6.4216  -28.4997   -3.9385 C   0  0  0  0  0  0  0  0  0  0  0  0
   -2.3971  -29.8138  -12.7043 C   0  0  0  0  0  0  0  0  0  0  0  0
   -6.1326  -29.8552   -4.4715 C   0  0  0  0  0  0  0  0  0  0  0  0
   -8.7121  -28.7943   -4.8317 C   0  0  0  0  0  0  0  0  0  0  0  0
   -1.2389  -30.3745  -15.2136 C   0  0  0  0  0  0  0  0  0  0  0  0
   -8.3007  -28.8316   -6.2690 C   0  0  0  0  0  0  0  0  0  0  0  0
   -0.3442  -30.4236  -14.0866 C   0  0  0  0  0  0  0  0  0  0  0  0
   -2.5263  -28.8263   -8.2327 C   0  0  0  0  0  0  0  0  0  0  0  0
   -0.7623  -27.9269   -6.9024 C   0  0  0  0  0  0  0  0  0  0  0  0
    0.8748  -30.6167  -14.2531 O   0  0  0  0  0  0  0  0  0  0  0  0
   -3.3630  -27.7869   -7.8293 C   0  0  0  0  0  0  0  0  0  0  0  0
   -4.2896  -29.1100  -11.0374 C   0  0  0  0  0  0  0  0  0  0  0  0
   -0.8698  -30.3685  -10.4976 C   0  0  0  0  0  0  0  0  0  0  0  0
   -2.1760  -30.3937  -17.0974 C   0  0  0  0  0  0  0  0  0  0  0  0
   -6.0458  -29.8608   -5.9583 C   0  0  0  0  0  0  0  0  0  0  0  0
   -1.2274  -28.8740   -7.7674 C   0  0  0  0  0  0  0  0  0  0  0  0
   -0.2838  -30.5210  -11.7284 C   0  0  0  0  0  0  0  0  0  0  0  0
   -0.9539  -30.2633  -12.8603 C   0  0  0  0  0  0  0  0  0  0  0  0
   -2.9880  -31.1974   -8.5083 C   0  0  0  0  0  0  0  0  0  0  0  0
   -2.6419  -29.9887  -15.0009 C   0  0  0  0  0  0  0  0  0  0  0  0
   -2.9893  -29.8514   -9.1680 C   0  0  0  0  0  0  0  0  0  0  0  0
  1 18  1  0
  1 27  1  0
  2 24  1  0
  2 33  1  0
  3  6  1  0
  4  6  1  0
  4 10  1  0
  4 23  2  0
  5 17  2  0
  5 26  1  0
  7 11  2  0
  7 25  1  0
  7 33  1  0
  8 26  1  0
  8 32  2  0
  9 14  1  0
  9 32  1  0
 10 21  2  0
 11 14  1  0
 11 24  1  0
 12 13  1  0
 12 16  1  0
 13 15  1  0
 14 30  2  0
 15 27  1  0
 16 18  1  0
 17 19  1  0
 17 32  1  0
 19 22  2  0
 19 30  1  0
 20 23  1  0
 20 28  2  0
 20 33  1  0
 21 28  1  0
 25 29  2  0
 29 30  1  0
 31 33  1  0
M  END
$$$$
