
     RDKit          3D

 17 18  0  0  0  0  0  0  0  0999 V2000
   -0.5935  -30.1940  -13.7877 N   0  0  0  0  0  0  0  0  0  0  0  0
   -1.5668  -29.6972  -10.4996 C   0  0  0  0  0  0  0  0  0  0  0  0
   -1.3537  -29.8637  -11.8404 C   0  0  0  0  0  0  0  0  0  0  0  0
   -1.9508  -29.8885  -16.3133 N   0  0  0  0  0  0  0  0  0  0  0  0
   -1.8570  -29.9746  -13.9556 C   0  0  0  0  0  0  0  0  0  0  0  0
   -1.5893  -30.7934  -17.3357 C   0  0  0  0  0  0  0  0  0  0  0  0
   -3.8881  -29.2875  -10.9191 C   0  0  0  0  0  0  0  0  0  0  0  0
   -3.6421  -29.4726  -12.2667 C   0  0  0  0  0  0  0  0  0  0  0  0
   -2.8133  -29.4170  -10.0699 C   0  0  0  0  0  0  0  0  0  0  0  0
   -3.0844  -29.2275   -8.6263 C   0  0  0  0  0  0  0  0  0  0  0  0
   -2.3789  -29.7581  -12.7244 C   0  0  0  0  0  0  0  0  0  0  0  0
   -0.2663  -30.1199  -12.5531 N   0  0  0  0  0  0  0  0  0  0  0  0
   -3.6955  -30.2128  -15.1565 O   0  0  0  0  0  0  0  0  0  0  0  0
   -2.1127  -29.9244   -7.7617 N   0  0  0  0  0  0  0  0  0  0  0  0
   -2.9702  -30.4901   -6.7101 C   0  0  0  0  0  0  0  0  0  0  0  0
   -1.2622  -28.8918   -7.0732 C   0  0  0  0  0  0  0  0  0  0  0  0
   -2.5071  -30.0195  -15.1399 C   0  0  0  0  0  0  0  0  0  0  0  0
  1  5  1  0
  1 12  1  0
  2  3  1  0
  2  9  2  0
  3 11  1  0
  3 12  2  0
  4  6  1  0
  4 17  1  0
  5 11  2  0
  5 17  1  0
  7  8  2  0
  7  9  1  0
  8 11  1  0
  9 10  1  0
 10 14  1  0
 13 17  2  0
 14 15  1  0
 14 16  1  0
M  END
$$$$
