
     RDKit          3D

 22 25  0  0  0  0  0  0  0  0999 V2000
   -4.4803  -30.4285   -6.9884 C   0  0  0  0  0  0  0  0  0  0  0  0
   -3.6585  -29.2932  -10.4400 C   0  0  0  0  0  0  0  0  0  0  0  0
   -2.6303  -29.4733   -8.2528 N   0  0  0  0  0  0  0  0  0  0  0  0
   -3.4068  -28.3596   -6.2878 C   0  0  0  0  0  0  0  0  0  0  0  0
   -3.0961  -28.1964   -7.7389 C   0  0  0  0  0  0  0  0  0  0  0  0
   -2.7683  -30.0069  -14.9464 C   0  0  0  0  0  0  0  0  0  0  0  0
   -4.4819  -29.7771   -4.6682 C   0  0  0  0  0  0  0  0  0  0  0  0
   -0.2043  -30.7209  -14.8018 C   0  0  0  0  0  0  0  0  0  0  0  0
   -1.3513  -29.9784  -10.2026 C   0  0  0  0  0  0  0  0  0  0  0  0
   -3.5644  -29.3784  -11.8279 C   0  0  0  0  0  0  0  0  0  0  0  0
   -0.2261  -30.3251  -12.3647 C   0  0  0  0  0  0  0  0  0  0  0  0
   -2.3568  -29.7497  -12.3636 C   0  0  0  0  0  0  0  0  0  0  0  0
   -1.3009  -30.0317  -11.5642 C   0  0  0  0  0  0  0  0  0  0  0  0
   -3.1057  -30.6660   -7.5700 C   0  0  0  0  0  0  0  0  0  0  0  0
    0.8965  -30.5392  -12.0156 O   0  0  0  0  0  0  0  0  0  0  0  0
   -2.0115  -29.9226  -13.8027 C   0  0  0  0  0  0  0  0  0  0  0  0
   -2.5436  -29.5809   -9.6307 C   0  0  0  0  0  0  0  0  0  0  0  0
   -2.0524  -30.4349  -16.1147 C   0  0  0  0  0  0  0  0  0  0  0  0
   -0.7557  -30.3565  -13.7443 C   0  0  0  0  0  0  0  0  0  0  0  0
   -2.6129  -30.5952  -17.3016 N   0  0  0  0  0  0  0  0  0  0  0  0
   -0.7750  -30.7135  -15.9646 N   0  0  0  0  0  0  0  0  0  0  0  0
   -4.5149  -29.3241   -6.0299 N   0  0  0  0  0  0  0  0  0  0  0  0
  1 14  1  0
  1 22  1  0
  2 10  2  0
  2 17  1  0
  3  5  1  0
  3 14  1  0
  3 17  1  0
  4  5  1  0
  4 22  1  0
  6 16  2  0
  6 18  1  0
  7 22  1  0
  8 19  2  0
  8 21  1  0
  9 13  1  0
  9 17  2  0
 10 12  1  0
 11 13  1  0
 11 15  2  0
 11 19  1  0
 12 13  2  0
 12 16  1  0
 16 19  1  0
 18 20  1  0
 18 21  2  0
M  END
$$$$
