
     RDKit          3D

 22 25  0  0  0  0  0  0  0  0999 V2000
   -4.5222    0.2831   -1.0260 C   0  0  0  0  0  0  0  0  0  0  0  0
    2.6911    0.6626    0.1893 C   0  0  1  0  0  0  0  0  0  0  0  0
    1.6436   -1.8028    1.1932 C   0  0  0  0  0  0  0  0  0  0  0  0
    1.2216    0.2592   -0.0915 C   0  0  0  0  0  0  0  0  0  0  0  0
    4.4140    1.5574   -1.3880 C   0  0  0  0  0  0  0  0  0  0  0  0
   -1.7944   -0.1231    0.6767 C   0  0  2  0  0  0  0  0  0  0  0  0
   -2.4718   -1.6490    2.2750 N   0  0  0  0  0  0  0  0  0  0  0  0
   -1.9974   -0.2628   -0.8596 C   0  0  0  0  0  0  0  0  0  0  0  0
   -3.3952   -0.7290   -1.3088 C   0  0  0  0  0  0  0  0  0  0  0  0
    0.7598   -0.8616    0.8170 C   0  0  0  0  0  0  0  0  0  0  0  0
   -1.0987   -1.8137    2.0856 N   0  0  0  0  0  0  0  0  0  0  0  0
    2.7866    1.4226    1.5278 C   0  0  0  0  0  0  0  0  0  0  0  0
    4.9750   -0.4967   -0.1870 C   0  0  0  0  0  0  0  0  0  0  0  0
    5.3659    0.5200   -0.9571 C   0  0  0  0  0  0  0  0  0  0  0  0
    3.5661   -0.5898    0.2661 C   0  0  0  0  0  0  0  0  0  0  0  0
    3.0666   -1.7235    0.8042 C   0  0  0  0  0  0  0  0  0  0  0  0
   -4.6050    0.8023    0.4235 C   0  0  0  0  0  0  0  0  0  0  0  0
   -4.3417   -0.2761    1.4847 C   0  0  0  0  0  0  0  0  0  0  0  0
    4.0473   -3.1690    1.0356 Cl  0  0  0  0  0  0  0  0  0  0  0  0
   -0.6714   -0.9770    1.1965 C   0  0  0  0  0  0  0  0  0  0  0  0
    3.1646    1.5949   -0.9121 C   0  0  0  0  0  0  0  0  0  0  0  0
   -2.9020   -0.7062    1.5075 C   0  0  0  0  0  0  0  0  0  0  0  0
  1  9  1  0
  1 17  1  0
  2  4  1  0
  2 12  1  1
  2 15  1  0
  2 21  1  0
  3 10  2  0
  3 16  1  0
  4 10  1  0
  5 14  1  0
  5 21  2  0
  6  8  1  6
  6 20  1  0
  6 22  1  0
  7 11  1  0
  7 22  2  0
  8  9  1  0
 10 20  1  0
 11 20  2  0
 13 14  2  0
 13 15  1  0
 15 16  2  0
 16 19  1  0
 17 18  1  0
 18 22  1  0
M  END
