
     RDKit          3D

 29 29  0  0  0  0  0  0  0  0999 V2000
   48.9209  -13.5551   26.5716 C   0  0  0  0  0  0  0  0  0  0  0  0
   50.0481  -15.6183   26.0305 O   0  0  0  0  0  0  0  0  0  0  0  0
   45.8467   -9.7570   24.3860 O   0  0  0  0  0  0  0  0  0  0  0  0
   45.9564   -6.5359   27.0776 O   0  0  0  0  0  0  0  0  0  0  0  0
   46.5790   -9.5404   27.2769 N   0  0  0  0  0  0  0  0  0  0  0  0
   45.3448   -7.4006   28.2837 P   0  0  0  0  0  0  0  0  0  0  0  0
   48.6666  -10.3759   27.6718 O   0  0  0  0  0  0  0  0  0  0  0  0
   48.8433  -15.0742   26.5741 C   0  0  1  0  0  0  0  0  0  0  0  0
   47.6943  -10.2592   26.9329 C   0  0  0  0  0  0  0  0  0  0  0  0
   47.8914   -9.7474   22.1570 O   0  0  0  0  0  0  0  0  0  0  0  0
   50.0755  -10.0889   23.6461 O   0  0  0  0  0  0  0  0  0  0  0  0
   47.5816  -10.9650   25.5953 C   0  0  1  0  0  0  0  0  0  0  0  0
   49.9994  -16.0936   24.5089 P   0  0  0  0  0  0  0  0  0  0  0  0
   48.7992  -16.8693   24.0960 O   0  0  0  0  0  0  0  0  0  0  0  0
   47.2536   -9.9719   24.4858 C   0  0  1  0  0  0  0  0  0  0  0  0
   44.9716   -6.5477   29.4486 O   0  0  0  0  0  0  0  0  0  0  0  0
   49.1467  -11.1820   23.7030 C   0  0  1  0  0  0  0  0  0  0  0  0
   49.9894  -15.4088   29.0283 O   0  0  0  0  0  0  0  0  0  0  0  0
   47.4301  -15.3793   28.9852 O   0  0  0  0  0  0  0  0  0  0  0  0
   51.3853  -16.8639   24.3432 O   0  0  0  0  0  0  0  0  0  0  0  0
   48.6517  -15.7534   28.2140 P   0  0  0  0  0  0  0  0  0  0  0  0
   50.2466  -14.7385   23.7059 O   0  0  0  0  0  0  0  0  0  0  0  0
   48.7930  -17.3459   28.0692 O   0  0  0  0  0  0  0  0  0  0  0  0
   48.9142  -11.6246   25.1656 C   0  0  2  0  0  0  0  0  0  0  0  0
   46.0101   -9.7097   29.6574 C   0  0  0  0  0  0  0  0  0  0  0  0
   47.7872  -10.6667   23.2392 C   0  0  2  0  0  0  0  0  0  0  0  0
   46.4673   -8.7923   28.5319 C   0  0  1  0  0  0  0  0  0  0  0  0
   44.0512   -8.0164   27.5554 O   0  0  0  0  0  0  0  0  0  0  0  0
   48.8144  -13.0659   25.2121 O   0  0  0  0  0  0  0  0  0  0  0  0
  8  1  1  1
  1 29  1  0
  2  8  1  0
  2 13  1  0
 15  3  1  6
  4  6  1  0
  5  9  1  0
  5 27  1  0
  6 16  2  0
  6 27  1  0
  6 28  1  0
  7  9  2  0
  8 21  1  0
 12  9  1  1
 26 10  1  6
 17 11  1  1
 12 15  1  0
 12 24  1  0
 13 14  2  0
 13 20  1  0
 13 22  1  0
 15 26  1  0
 17 24  1  0
 17 26  1  0
 18 21  1  0
 19 21  2  0
 21 23  1  0
 24 29  1  6
 27 25  1  1
M  END
$$$$
