
     RDKit          3D

 19 19  0  0  0  0  0  0  0  0999 V2000
   50.6277  -15.4659   22.8551 O   0  0  0  0  0  0  0  0  0  0  0  0
   50.4002  -15.9185   25.3706 O   0  0  0  0  0  0  0  0  0  0  0  0
   46.9786   -6.9682   27.7408 O   0  0  0  0  0  0  0  0  0  0  0  0
   49.1616  -13.9322   24.4164 O   0  0  0  0  0  0  0  0  0  0  0  0
   45.2013   -8.4797   28.8681 O   0  0  0  0  0  0  0  0  0  0  0  0
   48.8104  -11.6843   26.1328 O   0  0  0  0  0  0  0  0  0  0  0  0
   46.1497   -8.3289   27.7348 P   0  0  0  0  0  0  0  0  0  0  0  0
   50.0955  -12.8634   24.4191 C   0  0  0  0  0  0  0  0  0  0  0  0
   47.4590  -10.2666   24.8405 C   0  0  2  0  0  0  0  0  0  0  0  0
   45.4494   -8.2676   26.2945 O   0  0  0  0  0  0  0  0  0  0  0  0
   46.8548  -10.7710   27.2944 C   0  0  0  0  0  0  0  0  0  0  0  0
   48.3992  -10.9596   23.8674 C   0  0  1  0  0  0  0  0  0  0  0  0
   49.4459  -11.5437   24.8305 C   0  0  1  0  0  0  0  0  0  0  0  0
   49.7202  -15.3748   24.0318 P   0  0  0  0  0  0  0  0  0  0  0  0
   47.4340  -11.2822   25.9770 C   0  0  2  0  0  0  0  0  0  0  0  0
   47.2826   -9.4425   27.5651 O   0  0  0  0  0  0  0  0  0  0  0  0
   46.1828  -10.0224   24.2637 O   0  0  0  0  0  0  0  0  0  0  0  0
   48.4104  -16.2819   23.9749 O   0  0  0  0  0  0  0  0  0  0  0  0
   47.6765  -11.9368   23.1184 O   0  0  0  0  0  0  0  0  0  0  0  0
  1 14  2  0
  2 14  1  0
  3  7  1  0
  4  8  1  0
  4 14  1  0
  5  7  2  0
  6 13  1  0
  6 15  1  0
  7 10  1  0
  7 16  1  0
 13  8  1  6
  9 12  1  0
  9 15  1  0
  9 17  1  6
 15 11  1  1
 11 16  1  0
 12 13  1  0
 12 19  1  1
 14 18  1  0
M  END
$$$$
