
     RDKit          3D

 10  9  0  0  0  0  0  0  0  0999 V2000
    2.4084    0.6389    0.6301 O   0  0  0  0  0  0  0  0  0  0  0  0
   -0.6961    1.1473    0.5700 C   0  0  0  0  0  0  0  0  0  0  0  0
    2.2771   -1.0025   -0.9707 O   0  0  0  0  0  0  0  0  0  0  0  0
   -1.8316   -0.9294    0.8837 O   0  0  0  0  0  0  0  0  0  0  0  0
   -0.2572    2.0886   -0.3585 O   0  0  0  0  0  0  0  0  0  0  0  0
   -0.7522   -0.3247    0.2094 C   0  0  1  0  0  0  0  0  0  0  0  0
   -0.9958    1.5204    1.7365 O   0  0  0  0  0  0  0  0  0  0  0  0
   -0.9507   -0.5138   -1.3106 C   0  0  0  0  0  0  0  0  0  0  0  0
    0.5410   -1.0313    0.6819 C   0  0  0  0  0  0  0  0  0  0  0  0
    1.7930   -0.4742    0.0659 C   0  0  0  0  0  0  0  0  0  0  0  0
  1 10  1  0
  2  5  1  0
  2  6  1  0
  2  7  2  0
  3 10  2  0
  4  6  1  0
  6  8  1  6
  6  9  1  0
  9 10  1  0
M  END
