
     RDKit          3D

 15 15  0  0  0  0  0  0  0  0999 V2000
    2.1868    0.4742   -0.8671 O   0  0  0  0  0  0  0  0  0  0  0  0
   -1.1697   -2.8073    0.8607 C   0  0  0  0  0  0  0  0  0  0  0  0
    0.8976   -1.6014    1.1938 C   0  0  0  0  0  0  0  0  0  0  0  0
    1.3791    1.4495    2.4440 O   0  0  0  0  0  0  0  0  0  0  0  0
   -0.8712   -0.6189   -0.1625 C   0  0  0  0  0  0  0  0  0  0  0  0
   -3.1637    1.8826   -2.0371 C   0  0  0  0  0  0  0  0  0  0  0  0
   -1.6525   -1.7653    0.0687 C   0  0  0  0  0  0  0  0  0  0  0  0
    0.1053   -2.7284    1.4166 C   0  0  0  0  0  0  0  0  0  0  0  0
    2.0299    1.1266    1.4611 C   0  0  0  0  0  0  0  0  0  0  0  0
   -1.3570    0.4033   -1.0499 N   0  0  0  0  0  0  0  0  0  0  0  0
   -3.4602    0.6179   -0.0405 O   0  0  0  0  0  0  0  0  0  0  0  0
    0.4156   -0.5205    0.4268 C   0  0  0  0  0  0  0  0  0  0  0  0
   -2.6951    0.9188   -0.9965 C   0  0  0  0  0  0  0  0  0  0  0  0
    1.3003    0.7005    0.2011 C   0  0  2  0  0  0  0  0  0  0  0  0
    3.5296    1.1740    1.5310 C   0  0  0  0  0  0  0  0  0  0  0  0
 14  1  1  6
  2  7  1  0
  2  8  2  0
  3  8  1  0
  3 12  2  0
  4  9  2  0
  5  7  2  0
  5 10  1  0
  5 12  1  0
  6 13  1  0
  9 14  1  0
  9 15  1  0
 10 13  1  0
 11 13  2  0
 12 14  1  0
M  END
