
     RDKit          3D

 32 33  0  0  0  0  0  0  0  0999 V2000
   92.4253   45.6816   72.0384 C   0  0  0  0  0  0  0  0  0  0  0  0
   94.4380   49.1381   73.6500 C   0  0  0  0  0  0  0  0  0  0  0  0
   94.8965   48.3529   72.3536 C   0  0  0  0  0  0  0  0  0  0  0  0
   97.0200   45.8158   75.2909 P   0  0  0  0  0  0  0  0  0  0  0  0
  100.6078   46.2290   73.9472 O   0  0  0  0  0  0  0  0  0  0  0  0
   99.9899   45.2000   74.8775 P   0  0  0  0  0  0  0  0  0  0  0  0
   99.8845   45.6493   76.2820 O   0  0  0  0  0  0  0  0  0  0  0  0
   97.1202   44.3822   75.8449 O   0  0  0  0  0  0  0  0  0  0  0  0
   90.1838   46.1751   71.3071 N   0  0  0  0  0  0  0  0  0  0  0  0
   90.7797   44.0612   71.9097 N   0  0  0  0  0  0  0  0  0  0  0  0
   90.6858   47.4387   71.2121 C   0  0  0  0  0  0  0  0  0  0  0  0
   98.2977   47.3010   73.0347 C   0  0  0  0  0  0  0  0  0  0  0  0
   95.4002   51.7088   71.2828 O   0  0  0  0  0  0  0  0  0  0  0  0
   93.4677   45.0461   72.4286 N   0  0  0  0  0  0  0  0  0  0  0  0
   94.3773   45.9232   72.5638 C   0  0  0  0  0  0  0  0  0  0  0  0
   97.2719   48.3621   72.8561 C   0  0  0  0  0  0  0  0  0  0  0  0
   97.3589   46.9182   76.2654 O   0  0  0  0  0  0  0  0  0  0  0  0
   95.3097   49.0512   74.7540 O   0  0  0  0  0  0  0  0  0  0  0  0
   98.4202   45.9211   74.3933 O   0  0  0  0  0  0  0  0  0  0  0  0
   98.5328   46.4689   71.9214 N   0  0  0  0  0  0  0  0  0  0  0  0
   94.9884   49.2641   71.4064 C   0  0  0  0  0  0  0  0  0  0  0  0
   96.1733   47.5430   72.4516 O   0  0  0  0  0  0  0  0  0  0  0  0
   93.9873   49.3428   70.4245 O   0  0  0  0  0  0  0  0  0  0  0  0
   99.7871   43.8093   74.4310 O   0  0  0  0  0  0  0  0  0  0  0  0
   94.9592   51.7790   74.0787 O   0  0  0  0  0  0  0  0  0  0  0  0
   92.8036   46.9369   71.9154 C   0  0  0  0  0  0  0  0  0  0  0  0
   91.1593   45.3298   71.7434 C   0  0  0  0  0  0  0  0  0  0  0  0
   91.9183   47.8883   71.4857 N   0  0  0  0  0  0  0  0  0  0  0  0
   94.1183   47.1212   72.1895 N   0  0  0  0  0  0  0  0  0  0  0  0
   94.4805   50.6928   73.2510 C   0  0  0  0  0  0  0  0  0  0  0  0
   95.4704   46.0814   74.8443 O   0  0  0  0  0  0  0  0  0  0  0  0
   95.4469   50.5730   72.1275 C   0  0  0  0  0  0  0  0  0  0  0  0
  1 14  1  0
  1 26  1  0
  1 27  2  0
  2  3  1  0
  2 18  1  0
  2 30  1  0
  3 21  1  0
  3 22  1  0
  3 29  1  0
  4  8  1  0
  4 17  2  0
  4 19  1  0
  4 31  1  0
  5  6  1  0
  6  7  1  0
  6 19  1  0
  6 24  2  0
  9 11  2  0
  9 27  1  0
 10 27  1  0
 11 28  1  0
 12 16  1  0
 12 20  1  0
 13 32  1  0
 14 15  2  0
 15 29  1  0
 16 22  1  0
 21 23  1  0
 21 32  1  0
 25 30  1  0
 26 28  2  0
 26 29  1  0
 30 32  1  0
M  END
$$$$
