
     RDKit          3D

 23 24  0  0  0  0  0  0  0  0999 V2000
   99.0513   46.6119   76.6223 O   0  0  0  0  0  0  0  0  0  0  0  0
   92.0202   45.3123   71.9409 C   0  0  0  0  0  0  0  0  0  0  0  0
   93.8050   51.1076   71.0602 O   0  0  0  0  0  0  0  0  0  0  0  0
   92.5157   47.9663   71.7116 C   0  0  0  0  0  0  0  0  0  0  0  0
   91.1081   44.1774   71.8002 N   0  0  0  0  0  0  0  0  0  0  0  0
   93.3321   45.2758   72.5795 N   0  0  0  0  0  0  0  0  0  0  0  0
   91.5753   46.8812   71.3123 C   0  0  0  0  0  0  0  0  0  0  0  0
   96.9303   49.0823   73.2396 C   0  0  0  0  0  0  0  0  0  0  0  0
   96.8369   47.6813   75.1732 C   0  0  0  0  0  0  0  0  0  0  0  0
   97.7809   46.8244   74.4268 O   0  0  0  0  0  0  0  0  0  0  0  0
   90.5066   46.7938   70.8773 O   0  0  0  0  0  0  0  0  0  0  0  0
   93.7704   47.8541   72.3635 C   0  0  0  0  0  0  0  0  0  0  0  0
   97.9128   44.5504   75.7261 O   0  0  0  0  0  0  0  0  0  0  0  0
   96.0380   46.7415   75.8911 O   0  0  0  0  0  0  0  0  0  0  0  0
   94.0631   50.5536   72.2369 C   0  0  0  0  0  0  0  0  0  0  0  0
  100.0259   45.4844   74.6220 O   0  0  0  0  0  0  0  0  0  0  0  0
   96.2378   48.7387   74.3147 C   0  0  0  0  0  0  0  0  0  0  0  0
   96.0105   48.9076   72.0326 C   0  0  0  0  0  0  0  0  0  0  0  0
   94.0401   46.3286   72.7311 C   0  0  0  0  0  0  0  0  0  0  0  0
   93.9372   51.4911   73.3835 O   0  0  0  0  0  0  0  0  0  0  0  0
   94.4953   49.1893   72.4302 C   0  0  0  0  0  0  0  0  0  0  0  0
   94.7690   48.7609   73.9588 O   0  0  0  0  0  0  0  0  0  0  0  0
   98.7596   45.9082   75.3419 P   0  0  0  0  0  0  0  0  0  0  0  0
  1 23  1  0
  2  5  1  0
  2  6  4  0
  2  7  4  0
  3 15  2  0
  4  7  4  0
  4 12  4  0
  6 19  4  0
  7 11  2  0
  8 17  1  0
  8 18  1  0
  9 10  1  0
  9 14  1  0
  9 17  1  0
 10 23  1  0
 12 19  4  0
 12 21  1  0
 13 23  2  0
 15 20  1  0
 15 21  1  0
 16 23  1  0
 17 22  1  0
 18 21  1  0
 21 22  1  0
M  END
$$$$
