
     RDKit          3D

 11 10  0  0  0  0  0  0  0  0999 V2000
    1.5900    0.6298    0.3323 C   0  0  0  0  0  0  0  0  0  0  0  0
   -0.5023   -0.6129   -0.4686 C   0  0  2  0  0  0  0  0  0  0  0  0
    0.9920   -0.2663   -0.7244 C   0  0  2  0  0  0  0  0  0  0  0  0
   -1.4146    0.6258   -0.5419 C   0  0  0  0  0  0  0  0  0  0  0  0
    1.5931    2.0086    0.1441 O   0  0  0  0  0  0  0  0  0  0  0  0
    2.0624    0.1431    1.3950 O   0  0  0  0  0  0  0  0  0  0  0  0
   -0.7582   -0.6244    2.0371 O   0  0  0  0  0  0  0  0  0  0  0  0
    1.7641   -1.4308   -0.8941 O   0  0  0  0  0  0  0  0  0  0  0  0
   -1.3547    1.1956   -1.8208 O   0  0  0  0  0  0  0  0  0  0  0  0
   -0.7054   -1.3348    0.8405 C   0  0  0  0  0  0  0  0  0  0  0  0
   -0.8044   -2.5912    0.8560 O   0  0  0  0  0  0  0  0  0  0  0  0
  1  3  1  0
  1  5  1  0
  1  6  2  0
  2  3  1  0
  2  4  1  1
  2 10  1  0
  3  8  1  1
  4  9  1  0
  7 10  1  0
 10 11  2  0
M  END
