
     RDKit          3D

 15 15  0  0  0  0  0  0  0  0999 V2000
   -0.8216    1.0120   -0.0100 C   0  0  1  0  0  0  0  0  0  0  0  0
    0.0112   -1.4142   -0.2480 C   0  0  1  0  0  0  0  0  0  0  0  0
    3.1613   -1.1708   -0.9748 O   0  0  0  0  0  0  0  0  0  0  0  0
    4.1819    0.4674    0.9906 O   0  0  0  0  0  0  0  0  0  0  0  0
    3.0679    1.4389   -1.1624 O   0  0  0  0  0  0  0  0  0  0  0  0
    0.3234   -1.9415    1.0188 O   0  0  0  0  0  0  0  0  0  0  0  0
   -1.7549   -1.2687   -1.8699 O   0  0  0  0  0  0  0  0  0  0  0  0
   -1.7183    0.3904    0.9754 N   0  0  0  0  0  0  0  0  0  0  0  0
   -2.3753   -0.8161    0.4364 C   0  0  0  0  0  0  0  0  0  0  0  0
   -1.5270    3.2458    0.5891 O   0  0  0  0  0  0  0  0  0  0  0  0
   -1.4853   -1.6333   -0.5395 C   0  0  2  0  0  0  0  0  0  0  0  0
   -0.4040    2.4148    0.4666 C   0  0  0  0  0  0  0  0  0  0  0  0
    2.9609    0.3036   -0.1689 P   0  0  0  0  0  0  0  0  0  0  0  0
    0.3998    0.0924   -0.3135 C   0  0  2  0  0  0  0  0  0  0  0  0
    1.4423    0.3581    0.6124 O   0  0  0  0  0  0  0  0  0  0  0  0
  1  8  1  0
  1 12  1  1
  1 14  1  0
  2  6  1  1
  2 11  1  0
  2 14  1  0
  3 13  1  0
  4 13  1  0
  5 13  2  0
 11  7  1  6
  8  9  1  0
  9 11  1  0
 10 12  1  0
 13 15  1  0
 14 15  1  1
M  END
