
     RDKit          3D

 25 27  0  0  0  0  0  0  0  0999 V2000
   33.9809  -35.1784    8.9017 C   0  0  0  0  0  0  0  0  0  0  0  0
   34.9031  -36.5173    7.0913 C   0  0  0  0  0  0  0  0  0  0  0  0
   36.4953  -38.6097    5.5719 O   0  0  0  0  0  0  0  0  0  0  0  0
   34.8402  -35.7175    5.8615 C   0  0  0  0  0  0  0  0  0  0  0  0
   36.8053  -35.7733   12.1367 C   0  0  0  0  0  0  0  0  0  0  0  0
   34.6436  -36.1880    4.7497 O   0  0  0  0  0  0  0  0  0  0  0  0
   35.0828  -34.4610   10.9538 C   0  0  0  0  0  0  0  0  0  0  0  0
   33.1916  -34.0411    8.8732 N   0  0  0  0  0  0  0  0  0  0  0  0
   37.6433  -37.8088   11.6822 C   0  0  0  0  0  0  0  0  0  0  0  0
   34.7239  -37.9264    6.9120 N   0  0  0  0  0  0  0  0  0  0  0  0
   35.8101  -41.3039    6.6242 C   0  0  0  0  0  0  0  0  0  0  0  0
   33.6922  -36.0612    7.7759 N   0  0  0  0  0  0  0  0  0  0  0  0
   33.8321  -39.9506    7.4983 C   0  0  0  0  0  0  0  0  0  0  0  0
   34.2612  -33.2926   10.8822 N   0  0  0  0  0  0  0  0  0  0  0  0
   33.9760  -40.4461    5.0809 C   0  0  0  0  0  0  0  0  0  0  0  0
   32.4417  -31.9583    9.7703 N   0  0  0  0  0  0  0  0  0  0  0  0
   35.2854  -34.4396    6.0546 O   0  0  0  0  0  0  0  0  0  0  0  0
   34.9707  -35.4708    9.9454 C   0  0  0  0  0  0  0  0  0  0  0  0
   34.7970  -40.1972    6.3506 C   0  0  0  0  0  0  0  0  0  0  0  0
   35.7965  -36.6392   10.1084 C   0  0  0  0  0  0  0  0  0  0  0  0
   36.6482  -36.6986   11.2294 C   0  0  0  0  0  0  0  0  0  0  0  0
   33.5517  -38.4260    7.4879 C   0  0  0  0  0  0  0  0  0  0  0  0
   35.4570  -38.8382    6.2277 C   0  0  0  0  0  0  0  0  0  0  0  0
   35.9655  -34.5735   11.9995 C   0  0  0  0  0  0  0  0  0  0  0  0
   33.3176  -33.0879    9.8707 C   0  0  0  0  0  0  0  0  0  0  0  0
  1  8  4  0
  1 12  1  0
  1 18  4  0
  2  4  1  0
  2 10  1  0
  2 12  1  0
  3 23  2  0
  4  6  1  0
  4 17  2  0
  5 21  4  0
  5 24  4  0
  7 14  4  0
  7 18  4  0
  7 24  4  0
  8 25  4  0
  9 21  1  0
 10 22  1  0
 10 23  1  0
 11 19  1  0
 13 19  1  0
 13 22  1  0
 14 25  4  0
 15 19  1  0
 16 25  1  0
 18 20  4  0
 19 23  1  0
 20 21  4  0
M  END
$$$$
