
     RDKit          3D

 26 27  0  0  0  0  0  0  0  0999 V2000
    8.7036    1.5656   25.4247 C   0  0  0  0  0  0  0  0  0  0  0  0
   11.7846    1.2341   22.9864 C   0  0  0  0  0  0  0  0  0  0  0  0
   11.0448    3.5041   22.6006 C   0  0  0  0  0  0  0  0  0  0  0  0
   12.0485    1.0813   21.6247 C   0  0  0  0  0  0  0  0  0  0  0  0
    4.6574    3.9547   24.1040 C   0  0  0  0  0  0  0  0  0  0  0  0
   11.2647    3.3647   21.2211 C   0  0  0  0  0  0  0  0  0  0  0  0
   11.0240    2.6026   24.9712 C   0  0  0  0  0  0  0  0  0  0  0  0
    3.3841    5.0106   26.3360 C   0  0  0  0  0  0  0  0  0  0  0  0
    9.1367    4.0513   25.6599 C   0  0  0  0  0  0  0  0  0  0  0  0
    6.8142    4.1177   25.1364 N   0  0  0  0  0  0  0  0  0  0  0  0
    3.2676    4.1208   24.1060 C   0  0  0  0  0  0  0  0  0  0  0  0
   10.9749    4.5200   20.3083 C   0  0  0  0  0  0  0  0  0  0  0  0
    2.6060    4.6516   25.2232 C   0  0  0  0  0  0  0  0  0  0  0  0
    9.5609    2.8139   25.3240 C   0  0  0  0  0  0  0  0  0  0  0  0
    0.4203    4.2205   26.2863 N   0  0  0  0  0  0  0  0  0  0  0  0
   11.9674    1.9069   19.4119 O   0  0  0  0  0  0  0  0  0  0  0  0
   11.7421    2.1359   20.7483 C   0  0  0  0  0  0  0  0  0  0  0  0
    7.7614    4.4231   26.0856 C   0  0  0  0  0  0  0  0  0  0  0  0
    0.7139    6.2188   25.2824 N   0  0  0  0  0  0  0  0  0  0  0  0
    5.4228    4.3197   25.2162 C   0  0  0  0  0  0  0  0  0  0  0  0
   11.2864    2.4441   23.4907 C   0  0  0  0  0  0  0  0  0  0  0  0
   12.4153   -0.1789   21.1152 N   0  0  0  0  0  0  0  0  0  0  0  0
    4.7756    4.8464   26.3322 C   0  0  0  0  0  0  0  0  0  0  0  0
    7.6094    5.0066   27.1498 O   0  0  0  0  0  0  0  0  0  0  0  0
    1.1055    4.8380   25.1876 C   0  0  0  0  0  0  0  0  0  0  0  0
    8.2428    1.0095   24.0845 C   0  0  0  0  0  0  0  0  0  0  0  0
  1 14  1  0
  1 26  1  0
  2  4  2  0
  2 21  1  0
  3  6  1  0
  3 21  2  0
  4 17  1  0
  4 22  1  0
  5 11  2  0
  5 20  1  0
  6 12  1  0
  6 17  2  0
  7 14  1  0
  7 21  1  0
  8 13  2  0
  8 23  1  0
  9 14  2  3
  9 18  1  0
 10 18  1  0
 10 20  1  0
 11 13  1  0
 13 25  1  0
 15 25  1  0
 16 17  1  0
 18 24  2  0
 19 25  1  0
 20 23  2  0
M  END
$$$$
