
     RDKit          3D

 35 38  0  0  0  0  0  0  0  0999 V2000
    4.5958    5.1600   22.9700 N   0  0  0  0  0  0  0  0  0  0  0  0
   14.0178    1.5670   24.3856 C   0  0  0  0  0  0  0  0  0  0  0  0
    6.3090    4.5058   27.1841 O   0  0  0  0  0  0  0  0  0  0  0  0
   14.7409    0.6772   26.5289 O   0  0  0  0  0  0  0  0  0  0  0  0
    7.7388    2.3030   25.8350 C   0  0  1  0  0  0  0  0  0  0  0  0
    5.7256    4.3242   23.3836 C   0  0  0  0  0  0  0  0  0  0  0  0
    0.1523    4.6028   24.0278 C   0  0  0  0  0  0  0  0  0  0  0  0
   11.7703    2.6128   24.0839 C   0  0  0  0  0  0  0  0  0  0  0  0
    8.0394    0.9040   25.7292 O   0  0  0  0  0  0  0  0  0  0  0  0
   14.3705    1.5721   21.5878 C   0  0  0  0  0  0  0  0  0  0  0  0
    8.2266    3.0979   24.6112 C   0  0  2  0  0  0  0  0  0  0  0  0
   11.7791    3.6312   25.0075 N   0  0  0  0  0  0  0  0  0  0  0  0
    2.2189    5.7673   23.1590 C   0  0  0  0  0  0  0  0  0  0  0  0
   13.1982    2.0784   22.1477 C   0  0  0  0  0  0  0  0  0  0  0  0
   13.8692    1.6088   25.8892 C   0  0  0  0  0  0  0  0  0  0  0  0
   13.0075    2.0745   23.5405 C   0  0  0  0  0  0  0  0  0  0  0  0
   10.4749    2.2056   23.7817 C   0  0  0  0  0  0  0  0  0  0  0  0
    0.7054    6.7819   24.9119 C   0  0  0  0  0  0  0  0  0  0  0  0
    6.3893    4.6727   24.7416 C   0  0  1  0  0  0  0  0  0  0  0  0
    6.2198    2.4594   25.9694 C   0  0  1  0  0  0  0  0  0  0  0  0
    5.8112    1.8445   27.2040 O   0  0  0  0  0  0  0  0  0  0  0  0
    3.4143    5.0700   23.8232 C   0  0  0  0  0  0  0  0  0  0  0  0
    0.9961    5.7216   24.0429 C   0  0  0  0  0  0  0  0  0  0  0  0
    8.8945    1.1910   22.3471 O   0  0  0  0  0  0  0  0  0  0  0  0
    9.9710    1.1513   22.9358 C   0  0  0  0  0  0  0  0  0  0  0  0
   10.5168    3.9002   25.2312 C   0  0  0  0  0  0  0  0  0  0  0  0
    5.8036    3.9323   25.9594 C   0  0  1  0  0  0  0  0  0  0  0  0
   10.7473    0.0370   22.8254 N   0  0  0  0  0  0  0  0  0  0  0  0
   -1.2472    5.6098   25.7205 C   0  0  0  0  0  0  0  0  0  0  0  0
    9.6869    3.0811   24.5137 N   0  0  0  0  0  0  0  0  0  0  0  0
   15.1981    1.0742   23.7992 C   0  0  0  0  0  0  0  0  0  0  0  0
   -0.9649    4.5488   24.8623 C   0  0  0  0  0  0  0  0  0  0  0  0
   -0.4129    6.7258   25.7453 C   0  0  0  0  0  0  0  0  0  0  0  0
   15.3693    1.0688   22.4138 C   0  0  0  0  0  0  0  0  0  0  0  0
    7.8158    4.4772   24.6849 O   0  0  0  0  0  0  0  0  0  0  0  0
  1  6  1  0
  1 22  1  0
  2 15  1  0
  2 16  1  0
  2 31  2  0
 27  3  1  1
  4 15  1  0
  5  9  1  6
  5 11  1  0
  5 20  1  0
 19  6  1  6
  7 23  2  0
  7 32  1  0
  8 12  1  0
  8 16  1  0
  8 17  2  0
 10 14  1  0
 10 34  2  0
 11 30  1  1
 11 35  1  0
 12 26  2  0
 13 22  1  0
 13 23  1  0
 14 16  2  0
 17 25  1  0
 17 30  1  0
 18 23  1  0
 18 33  2  0
 19 27  1  0
 19 35  1  0
 20 21  1  1
 20 27  1  0
 24 25  2  0
 25 28  1  0
 26 30  1  0
 29 32  2  0
 29 33  1  0
 31 34  1  0
M  END
$$$$
