
     RDKit          3D

 19 22  0  0  0  0  0  0  0  0999 V2000
   27.8056   58.0676   89.9965 C   0  0  0  0  0  0  0  0  0  0  0  0
   26.0520   58.7051   86.7496 C   0  0  0  0  0  0  0  0  0  0  0  0
   27.1411   56.0021   90.8887 N   0  0  0  0  0  0  0  0  0  0  0  0
   26.9596   57.9113   88.8864 C   0  0  0  0  0  0  0  0  0  0  0  0
   25.2343   57.5884   86.6750 C   0  0  0  0  0  0  0  0  0  0  0  0
   27.8964   57.1333   90.9578 N   0  0  0  0  0  0  0  0  0  0  0  0
   26.1510   56.7523   88.8136 C   0  0  0  0  0  0  0  0  0  0  0  0
   28.6129   59.2048   90.1609 N   0  0  0  0  0  0  0  0  0  0  0  0
   26.8997   58.8653   87.8425 C   0  0  0  0  0  0  0  0  0  0  0  0
   24.3534   55.4308   87.6352 C   0  0  2  0  0  0  0  0  0  0  0  0
   24.0660   53.5000   92.1242 O   0  0  0  0  0  0  0  0  0  0  0  0
   22.7266   55.2691   91.7107 O   0  0  0  0  0  0  0  0  0  0  0  0
   23.5702   55.4218   88.9548 C   0  0  2  0  0  0  0  0  0  0  0  0
   25.2640   56.6169   87.6843 C   0  0  0  0  0  0  0  0  0  0  0  0
   23.5681   54.4758   91.3155 C   0  0  0  0  0  0  0  0  0  0  0  0
   26.2790   55.8012   89.8697 C   0  0  0  0  0  0  0  0  0  0  0  0
   24.1624   54.4262   89.8932 C   0  0  2  0  0  0  0  0  0  0  0  0
   25.6493   54.5449   89.9357 N   0  0  0  0  0  0  0  0  0  0  0  0
   22.8694   55.2979   87.6329 C   0  0  0  0  0  0  0  0  0  0  0  0
  1  4  1  0
  1  6  2  0
  1  8  1  0
  2  5  2  0
  2  9  1  0
  3  6  1  0
  3 16  2  0
  4  7  1  0
  4  9  2  0
  5 14  1  0
  7 14  2  0
  7 16  1  0
 10 13  1  0
 10 14  1  0
 10 19  1  6
 11 15  1  0
 12 15  2  0
 13 17  1  0
 13 19  1  6
 17 15  1  1
 16 18  1  0
 17 18  1  0
M  END
$$$$
