
     RDKit          3D

 25 28  0  0  0  0  0  0  0  0999 V2000
  133.2402   53.7708   32.9404 C   0  0  0  0  0  0  0  0  0  0  0  0
  137.0046   51.2633   31.5635 C   0  0  0  0  0  0  0  0  0  0  0  0
  135.8912   53.2056   38.3661 C   0  0  0  0  0  0  0  0  0  0  0  0
  130.9756   53.2219   31.7183 C   0  0  0  0  0  0  0  0  0  0  0  0
  134.5704   53.9138   33.7066 C   0  0  0  0  0  0  0  0  0  0  0  0
  133.8104   52.8032   37.6190 O   0  0  0  0  0  0  0  0  0  0  0  0
  135.4224   53.8192   35.9770 C   0  0  0  0  0  0  0  0  0  0  0  0
  135.9815   53.3781   31.7190 C   0  0  0  0  0  0  0  0  0  0  0  0
  128.2753   52.3530   32.8390 C   0  0  0  0  0  0  0  0  0  0  0  0
  135.1315   52.6181   39.3893 C   0  0  0  0  0  0  0  0  0  0  0  0
  136.5021   50.7827   32.6999 N   0  0  0  0  0  0  0  0  0  0  0  0
  129.7939   52.6379   31.3291 N   0  0  0  0  0  0  0  0  0  0  0  0
  129.0999   53.1199   30.1590 C   0  0  0  0  0  0  0  0  0  0  0  0
  131.4938   52.4187   32.6975 C   0  0  0  0  0  0  0  0  0  0  0  0
  132.9012   54.6194   31.8642 C   0  0  0  0  0  0  0  0  0  0  0  0
  133.8853   52.4073   38.9706 C   0  0  0  0  0  0  0  0  0  0  0  0
  130.4545   51.2596   32.9468 C   0  0  0  0  0  0  0  0  0  0  0  0
  134.3578   53.5113   35.0669 N   0  0  0  0  0  0  0  0  0  0  0  0
  135.1253   53.2927   37.3262 C   0  0  0  0  0  0  0  0  0  0  0  0
  135.7378   51.6946   33.3499 C   0  0  0  0  0  0  0  0  0  0  0  0
  132.6074   52.6895   33.3193 N   0  0  0  0  0  0  0  0  0  0  0  0
  136.7979   52.5228   31.0483 C   0  0  0  0  0  0  0  0  0  0  0  0
  131.6682   54.2959   31.2297 C   0  0  0  0  0  0  0  0  0  0  0  0
  135.4639   52.9714   32.9333 C   0  0  0  0  0  0  0  0  0  0  0  0
  129.3416   51.7113   31.9940 C   0  0  0  0  0  0  0  0  0  0  0  0
  1  5  1  0
  1 15  1  0
  1 21  2  0
  2 11  1  0
  2 22  2  0
  3 10  1  0
  3 19  2  0
  4 12  1  0
  4 14  2  0
  4 23  1  0
  5 18  1  0
  5 24  1  0
  6 16  1  0
  6 19  1  0
  7 18  1  0
  7 19  1  0
  8 22  1  0
  8 24  2  0
  9 25  1  0
 10 16  2  0
 11 20  2  0
 12 13  1  0
 12 25  1  0
 14 17  1  0
 14 21  1  0
 15 23  2  0
 17 25  1  0
 20 24  1  0
M  END
$$$$
