
     RDKit          3D

 26 29  0  0  0  0  0  0  0  0999 V2000
    3.7745    8.2665   24.9587 C   0  0  0  0  0  0  0  0  0  0  0  0
    5.7383    9.1539   23.7957 C   0  0  0  0  0  0  0  0  0  0  0  0
    4.5683    9.3171   24.6392 C   0  0  0  0  0  0  0  0  0  0  0  0
    9.7459    9.1730   21.2830 C   0  0  0  0  0  0  0  0  0  0  0  0
    5.9806    7.7948   23.3720 C   0  0  0  0  0  0  0  0  0  0  0  0
    9.1496   11.6097   21.7180 C   0  0  0  0  0  0  0  0  0  0  0  0
    7.9510    8.3849   22.1541 C   0  0  0  0  0  0  0  0  0  0  0  0
    2.6781    8.9161   27.0684 N   0  0  0  0  0  0  0  0  0  0  0  0
    9.1502   10.1741   22.0062 N   0  0  0  0  0  0  0  0  0  0  0  0
   14.1760    9.5610   19.1149 C   0  0  0  0  0  0  0  0  0  0  0  0
   12.8902    9.2627   19.5557 C   0  0  0  0  0  0  0  0  0  0  0  0
   11.2829    7.6841   16.4622 C   0  0  0  0  0  0  0  0  0  0  0  0
    9.0197    8.0492   21.3972 N   0  0  0  0  0  0  0  0  0  0  0  0
    1.4181    8.0824   25.3254 O   0  0  0  0  0  0  0  0  0  0  0  0
   10.8866    9.1421   20.6082 C   0  0  0  0  0  0  0  0  0  0  0  0
   11.9411    8.7046   18.6555 C   0  0  0  0  0  0  0  0  0  0  0  0
   10.6954    8.5908   19.2942 N   0  0  0  0  0  0  0  0  0  0  0  0
   12.2758    8.3572   17.3752 C   0  0  0  0  0  0  0  0  0  0  0  0
    4.0421    6.9919   24.5015 C   0  0  0  0  0  0  0  0  0  0  0  0
   12.2100    9.5495   20.8124 N   0  0  0  0  0  0  0  0  0  0  0  0
    7.9956    9.7004   22.4982 C   0  0  0  0  0  0  0  0  0  0  0  0
    7.0375    7.4320   22.4781 N   0  0  0  0  0  0  0  0  0  0  0  0
    2.5626    8.4346   25.8274 C   0  0  0  0  0  0  0  0  0  0  0  0
   13.5736    8.6233   16.9469 C   0  0  0  0  0  0  0  0  0  0  0  0
    5.1308    6.7975   23.7215 C   0  0  0  0  0  0  0  0  0  0  0  0
   14.4945    9.2384   17.8089 C   0  0  0  0  0  0  0  0  0  0  0  0
  1  3  1  0
  1 19  2  0
  1 23  1  0
  2  3  2  0
  2  5  1  0
  4  9  1  0
  4 13  2  0
  4 15  1  0
  5 22  1  0
  5 25  2  0
  6  9  1  0
  7 13  1  0
  7 21  2  0
  7 22  1  0
  8 23  1  0
  9 21  1  0
 10 11  2  0
 10 26  1  0
 11 16  1  0
 11 20  1  0
 12 18  1  0
 14 23  2  0
 15 17  1  0
 15 20  2  0
 16 17  1  0
 16 18  2  0
 18 24  1  0
 19 25  1  0
 24 26  2  0
M  END
$$$$
