
     RDKit          3D

 23 25  0  0  0  0  0  0  0  0999 V2000
   12.4616    8.4190   16.7306 C   0  0  0  0  0  0  0  0  0  0  0  0
    7.0876    8.7733   22.4566 C   0  0  0  0  0  0  0  0  0  0  0  0
   13.7328    8.9584   16.9993 C   0  0  0  0  0  0  0  0  0  0  0  0
    3.4034    9.2084   24.8564 C   0  0  0  0  0  0  0  0  0  0  0  0
   10.1263   10.0353   20.3730 C   0  0  0  0  0  0  0  0  0  0  0  0
   14.0654    9.3979   18.3006 C   0  0  0  0  0  0  0  0  0  0  0  0
   13.0834    9.3091   19.2940 C   0  0  0  0  0  0  0  0  0  0  0  0
    6.5926    7.6510   23.2236 C   0  0  0  0  0  0  0  0  0  0  0  0
   11.5000    8.3521   17.7646 C   0  0  0  0  0  0  0  0  0  0  0  0
    2.6098   10.1185   24.6438 O   0  0  0  0  0  0  0  0  0  0  0  0
    8.4267    8.7529   21.6344 C   0  0  0  0  0  0  0  0  0  0  0  0
    8.9927    9.9939   21.1982 C   0  0  0  0  0  0  0  0  0  0  0  0
    5.4237    7.7915   23.9738 C   0  0  0  0  0  0  0  0  0  0  0  0
    4.6961    9.0194   24.0254 C   0  0  0  0  0  0  0  0  0  0  0  0
    6.3657    9.9348   22.5630 C   0  0  0  0  0  0  0  0  0  0  0  0
    9.0916    7.5690   21.2672 C   0  0  0  0  0  0  0  0  0  0  0  0
   10.7400    8.8326   19.9773 C   0  0  0  0  0  0  0  0  0  0  0  0
   13.4523    9.7665   20.5935 O   0  0  0  0  0  0  0  0  0  0  0  0
    3.1592    8.3749   25.8261 N   0  0  0  0  0  0  0  0  0  0  0  0
    1.9628    8.4078   26.7247 C   0  0  0  0  0  0  0  0  0  0  0  0
   11.8294    8.8386   19.0662 C   0  0  0  0  0  0  0  0  0  0  0  0
   10.2199    7.6060   20.4349 C   0  0  0  0  0  0  0  0  0  0  0  0
    5.1995   10.0983   23.3057 C   0  0  0  0  0  0  0  0  0  0  0  0
  1  3  2  0
  1  9  1  0
  2  8  1  0
  2 11  1  0
  2 15  2  0
  3  6  1  0
  4 10  2  0
  4 14  1  0
  4 19  1  0
  5 12  2  0
  5 17  1  0
  6  7  2  0
  7 18  1  0
  7 21  1  0
  8 13  2  0
  9 21  2  0
 11 12  1  0
 11 16  2  0
 13 14  1  0
 14 23  2  0
 15 23  1  0
 16 22  1  0
 17 21  1  0
 17 22  2  0
 19 20  1  0
M  END
$$$$
