
     RDKit          3D

 31 33  0  0  0  0  0  0  0  0999 V2000
   12.5697    8.8100   18.6573 C   0  0  0  0  0  0  0  0  0  0  0  0
    9.2323   11.7042   21.8363 O   0  0  0  0  0  0  0  0  0  0  0  0
   13.5154    9.4968   20.0270 S   0  0  0  0  0  0  0  0  0  0  0  0
    7.1419    8.7076   22.5199 C   0  0  0  0  0  0  0  0  0  0  0  0
    2.4138    8.1409   25.5965 N   0  0  0  0  0  0  0  0  0  0  0  0
   11.2354    8.4522   18.6387 C   0  0  0  0  0  0  0  0  0  0  0  0
    5.7636   11.0887   23.7271 N   0  0  0  0  0  0  0  0  0  0  0  0
    8.9665    9.8507   21.2867 C   0  0  0  0  0  0  0  0  0  0  0  0
    3.5742    8.3118   24.8332 C   0  0  0  0  0  0  0  0  0  0  0  0
    7.9707    9.9689   22.1830 C   0  0  0  0  0  0  0  0  0  0  0  0
    2.4752    7.4253   26.8650 C   0  0  0  0  0  0  0  0  0  0  0  0
    5.3081    7.4012   23.5219 C   0  0  0  0  0  0  0  0  0  0  0  0
    9.4591    7.6862   20.0790 N   0  0  0  0  0  0  0  0  0  0  0  0
    5.0646   11.7997   22.6896 C   0  0  0  0  0  0  0  0  0  0  0  0
   10.2686    8.6692   19.7135 C   0  0  0  0  0  0  0  0  0  0  0  0
   10.0320    9.9333   20.3804 C   0  0  0  0  0  0  0  0  0  0  0  0
   14.4856    8.5311   20.3741 O   0  0  0  0  0  0  0  0  0  0  0  0
    5.2601    9.7740   23.9006 C   0  0  0  0  0  0  0  0  0  0  0  0
   11.5371    7.7031   16.2935 C   0  0  0  0  0  0  0  0  0  0  0  0
    1.1214    8.6329   25.1799 C   0  0  0  0  0  0  0  0  0  0  0  0
   14.2875   10.9316   19.3729 N   0  0  0  0  0  0  0  0  0  0  0  0
    7.5954    7.6708   21.7967 N   0  0  0  0  0  0  0  0  0  0  0  0
   13.3994    8.6444   17.5189 C   0  0  0  0  0  0  0  0  0  0  0  0
   12.5743   10.0056   20.9586 O   0  0  0  0  0  0  0  0  0  0  0  0
    4.1067    9.5868   24.6435 C   0  0  0  0  0  0  0  0  0  0  0  0
    9.0056   12.7416   21.0255 C   0  0  0  0  0  0  0  0  0  0  0  0
   10.7626    7.8874   17.4520 C   0  0  0  0  0  0  0  0  0  0  0  0
    4.1466    7.1579   24.2866 C   0  0  0  0  0  0  0  0  0  0  0  0
   12.8737    8.0968   16.3362 C   0  0  0  0  0  0  0  0  0  0  0  0
    8.7088    8.1936   20.9855 N   0  0  0  0  0  0  0  0  0  0  0  0
    5.9138    8.6214   23.3010 C   0  0  0  0  0  0  0  0  0  0  0  0
  1  3  1  0
  1  6  1  0
  1 23  2  0
  2 26  1  0
  3 17  2  0
  3 21  1  0
  3 24  2  0
  4 10  1  0
  4 22  2  0
  4 31  1  0
  5  9  1  0
  5 11  1  0
  5 20  1  0
  6 15  1  0
  6 27  2  0
  7 14  1  0
  7 18  1  0
  8 10  2  0
  8 16  1  0
  8 30  1  0
  9 25  2  0
  9 28  1  0
 12 28  2  0
 12 31  1  0
 13 15  1  0
 13 30  1  0
 15 16  2  0
 18 25  1  0
 18 31  2  0
 19 27  1  0
 19 29  2  0
 22 30  1  0
 23 29  1  0
M  END
$$$$
