
     RDKit          3D

 26 29  0  0  0  0  0  0  0  0999 V2000
    2.6163    8.5546   24.4821 O   0  0  0  0  0  0  0  0  0  0  0  0
   12.9981    8.6027   16.9527 C   0  0  0  0  0  0  0  0  0  0  0  0
    5.6893    9.6637   22.9702 C   0  0  0  0  0  0  0  0  0  0  0  0
   13.3798    9.5106   19.5041 C   0  0  0  0  0  0  0  0  0  0  0  0
    0.9067    9.2187   25.8113 O   0  0  0  0  0  0  0  0  0  0  0  0
    3.1071    9.6162   26.5677 C   0  0  0  0  0  0  0  0  0  0  0  0
   11.0678    9.2382   20.0981 C   0  0  0  0  0  0  0  0  0  0  0  0
    2.1658    9.1203   25.5882 C   0  0  0  0  0  0  0  0  0  0  0  0
   12.1142    9.1316   19.1072 C   0  0  0  0  0  0  0  0  0  0  0  0
    4.6772    7.4724   23.9757 C   0  0  0  0  0  0  0  0  0  0  0  0
   14.4999    9.4609   18.6972 N   0  0  0  0  0  0  0  0  0  0  0  0
    5.9445    7.4542   23.4808 C   0  0  0  0  0  0  0  0  0  0  0  0
    9.1023    8.5304   21.1306 C   0  0  0  0  0  0  0  0  0  0  0  0
   10.1647    8.2105   20.2997 C   0  0  0  0  0  0  0  0  0  0  0  0
   11.8998    8.6678   17.7725 C   0  0  0  0  0  0  0  0  0  0  0  0
   10.4148    8.1437   17.1396 Cl  0  0  0  0  0  0  0  0  0  0  0  0
    9.0109    9.7969   21.6286 C   0  0  0  0  0  0  0  0  0  0  0  0
    7.9793    9.7496   22.3296 N   0  0  0  0  0  0  0  0  0  0  0  0
   10.9672   10.4682   20.5610 N   0  0  0  0  0  0  0  0  0  0  0  0
    9.9461   10.7448   21.3545 C   0  0  0  0  0  0  0  0  0  0  0  0
    3.8854    8.5857   23.9909 C   0  0  0  0  0  0  0  0  0  0  0  0
    6.5148    8.5226   22.9047 C   0  0  0  0  0  0  0  0  0  0  0  0
    7.3653    8.5561   22.3162 C   0  0  0  0  0  0  0  0  0  0  0  0
   14.2526    8.9496   17.4001 C   0  0  0  0  0  0  0  0  0  0  0  0
    8.1280    7.7364   21.6145 N   0  0  0  0  0  0  0  0  0  0  0  0
    4.4074    9.7169   23.4543 C   0  0  0  0  0  0  0  0  0  0  0  0
  1  8  1  0
  1 21  1  0
  2 15  1  0
  2 24  2  0
  3 22  2  0
  3 26  1  0
  4  9  1  0
  4 11  2  0
  5  8  2  0
  6  8  1  0
  7  9  1  0
  7 14  2  0
  7 19  1  0
  9 15  2  0
 10 12  2  0
 10 21  1  0
 11 24  1  0
 12 22  1  0
 13 14  1  0
 13 17  2  0
 13 25  1  0
 15 16  1  0
 17 18  1  0
 17 20  1  0
 18 23  1  0
 19 20  2  0
 21 26  2  0
 22 23  1  0
 23 25  2  0
M  END
$$$$
