
     RDKit          3D

 25 26  0  0  0  0  0  0  0  0999 V2000
   60.3145  -47.5257  113.4623 C   0  0  0  0  0  0  0  0  0  0  0  0
   61.6252  -44.4462  117.3692 P   0  0  0  0  0  0  0  0  0  0  0  0
   56.6734  -45.8770  113.9111 O   0  0  0  0  0  0  0  0  0  0  0  0
   58.9818  -43.4161  112.6653 O   0  0  0  0  0  0  0  0  0  0  0  0
   61.4117  -45.3666  114.5159 O   0  0  0  0  0  0  0  0  0  0  0  0
   58.7285  -46.2139  112.4222 O   0  0  0  0  0  0  0  0  0  0  0  0
   58.1784  -49.8108  113.6466 O   0  0  0  0  0  0  0  0  0  0  0  0
   61.5107  -50.1539  114.3151 O   0  0  0  0  0  0  0  0  0  0  0  0
   62.0366  -44.0034  114.6199 P   0  0  0  0  0  0  0  0  0  0  0  0
   60.2741  -48.2899  114.8045 C   0  0  0  0  0  0  0  0  0  0  0  0
   56.6765  -47.4880  111.7961 O   0  0  0  0  0  0  0  0  0  0  0  0
   62.2561  -43.6982  116.1134 O   0  0  0  0  0  0  0  0  0  0  0  0
   61.0234  -43.1950  113.6236 O   0  0  0  0  0  0  0  0  0  0  0  0
   62.3639  -45.8415  117.2727 O   0  0  0  0  0  0  0  0  0  0  0  0
   57.1607  -46.1788  112.3707 P   0  0  0  0  0  0  0  0  0  0  0  0
   62.0786  -43.7055  118.5710 O   0  0  0  0  0  0  0  0  0  0  0  0
   59.4815  -49.7202  113.2062 C   0  0  0  0  0  0  0  0  0  0  0  0
   60.2491  -49.6423  114.4530 C   0  0  0  0  0  0  0  0  0  0  0  0
   56.8998  -44.9209  111.6359 O   0  0  0  0  0  0  0  0  0  0  0  0
   59.4975  -46.4035  113.5600 C   0  0  0  0  0  0  0  0  0  0  0  0
   60.4616  -45.2581  113.4730 C   0  0  0  0  0  0  0  0  0  0  0  0
   59.8704  -48.5883  112.4349 C   0  0  0  0  0  0  0  0  0  0  0  0
   63.3469  -44.1891  113.9698 O   0  0  0  0  0  0  0  0  0  0  0  0
   60.1514  -44.5110  117.1490 O   0  0  0  0  0  0  0  0  0  0  0  0
   59.7367  -43.9155  113.7226 C   0  0  0  0  0  0  0  0  0  0  0  0
  1 10  1  0
  1 20  1  0
  1 22  1  0
  2 12  1  0
  2 14  2  0
  2 16  1  0
  2 24  1  0
  3 15  2  0
  4 25  1  0
  5  9  1  0
  5 21  1  0
  6 15  1  0
  6 20  1  0
  7 17  1  0
  8 18  1  0
  9 12  1  0
  9 13  1  0
  9 23  2  0
 10 18  1  0
 11 15  1  0
 13 25  1  0
 15 19  1  0
 17 18  1  0
 17 22  1  0
 20 21  1  0
 21 25  1  0
M  END
$$$$
