
     RDKit          3D

 18 17  0  0  0  0  0  0  0  0999 V2000
   56.8582  -46.7879  111.5928 O   0  0  0  0  0  0  0  0  0  0  0  0
   60.7773  -43.8799  114.1841 C   0  0  0  0  0  0  0  0  0  0  0  0
   60.2432  -48.9709  114.4790 C   0  0  0  0  0  0  0  0  0  0  0  0
   59.8893  -46.4838  115.0964 C   0  0  0  0  0  0  0  0  0  0  0  0
   61.8711  -47.7783  115.8709 O   0  0  0  0  0  0  0  0  0  0  0  0
   60.4804  -47.8865  115.5216 C   0  0  0  0  0  0  0  0  0  0  0  0
   62.7245  -45.3237  114.4530 O   0  0  0  0  0  0  0  0  0  0  0  0
   60.1874  -44.7233  113.0782 C   0  0  0  0  0  0  0  0  0  0  0  0
   59.6321  -45.8919  113.7277 N   0  0  0  0  0  0  0  0  0  0  0  0
   61.3139  -44.2226  117.5894 O   0  0  0  0  0  0  0  0  0  0  0  0
   63.7132  -44.0295  116.8065 O   0  0  0  0  0  0  0  0  0  0  0  0
   61.9498  -44.4448  114.8525 C   0  0  0  0  0  0  0  0  0  0  0  0
   57.8018  -46.9155  112.4976 C   0  0  0  0  0  0  0  0  0  0  0  0
   61.2049  -50.0106  114.5500 O   0  0  0  0  0  0  0  0  0  0  0  0
   58.3205  -47.9939  112.5232 O   0  0  0  0  0  0  0  0  0  0  0  0
   61.9100  -41.9852  116.2364 O   0  0  0  0  0  0  0  0  0  0  0  0
   58.1721  -45.8046  113.4554 C   0  0  0  0  0  0  0  0  0  0  0  0
   62.2117  -43.6661  116.4736 P   0  0  0  0  0  0  0  0  0  0  0  0
  1 13  1  0
  2  8  1  0
  2 12  1  0
  3  6  1  0
  3 14  1  0
  4  6  1  0
  4  9  1  0
  5  6  1  0
  7 12  2  0
  8  9  1  0
  9 17  1  0
 10 18  1  0
 11 18  1  0
 12 18  1  0
 13 15  2  0
 13 17  1  0
 16 18  2  0
M  END
$$$$
