
     RDKit          3D

 21 23  0  0  0  0  0  0  0  0999 V2000
   60.1710  -43.9465  114.3362 C   0  0  0  0  0  0  0  0  0  0  0  0
   59.3053  -44.7100  113.3065 C   0  0  0  0  0  0  0  0  0  0  0  0
   60.4871  -47.5387  115.3384 C   0  0  0  0  0  0  0  0  0  0  0  0
   62.2403  -44.7506  115.0933 C   0  0  0  0  0  0  0  0  0  0  0  0
   60.3742  -46.2773  114.4970 C   0  0  0  0  0  0  0  0  0  0  0  0
   62.8310  -44.0960  116.2780 O   0  0  0  0  0  0  0  0  0  0  0  0
   63.0734  -45.1834  114.4930 O   0  0  0  0  0  0  0  0  0  0  0  0
   58.5914  -47.1823  111.6502 O   0  0  0  0  0  0  0  0  0  0  0  0
   61.8512  -47.7812  115.8006 O   0  0  0  0  0  0  0  0  0  0  0  0
   59.0900  -45.9486  113.9595 O   0  0  0  0  0  0  0  0  0  0  0  0
   57.9913  -44.0294  113.1389 C   0  0  0  0  0  0  0  0  0  0  0  0
   58.7876  -48.6015  113.7885 O   0  0  0  0  0  0  0  0  0  0  0  0
   58.2745  -47.2354  113.2584 P   0  0  0  0  0  0  0  0  0  0  0  0
   62.4150  -43.8159  118.1819 O   0  0  0  0  0  0  0  0  0  0  0  0
   62.0001  -44.3256  116.8438 P   0  0  0  0  0  0  0  0  0  0  0  0
   60.9181  -44.9408  114.9679 C   0  0  0  0  0  0  0  0  0  0  0  0
   60.5254  -44.7516  116.4762 O   0  0  0  0  0  0  0  0  0  0  0  0
   57.6941  -44.0897  111.7388 O   0  0  0  0  0  0  0  0  0  0  0  0
   56.8031  -47.2293  113.2599 O   0  0  0  0  0  0  0  0  0  0  0  0
   60.1680  -48.6656  114.3531 C   0  0  0  0  0  0  0  0  0  0  0  0
   60.3870  -50.0416  114.8687 C   0  0  0  0  0  0  0  0  0  0  0  0
  1  2  1  0
  1 16  1  0
  2 10  1  0
  2 11  1  0
  3  5  1  0
  3  9  1  0
  3 20  1  0
  4  6  1  0
  4  7  1  0
  4 16  1  0
  5 10  1  0
  5 16  1  0
  6 15  1  0
  8 13  2  0
 10 13  1  0
 11 18  1  0
 12 13  1  0
 12 20  1  0
 13 19  1  0
 14 15  2  0
 15 17  1  0
 16 17  1  0
 20 21  1  0
M  END
$$$$
