
     RDKit          3D

 22 24  0  0  0  0  0  0  0  0999 V2000
   61.6734  -45.5591  115.4072 P   0  0  0  0  0  0  0  0  0  0  0  0
   60.4569  -46.1883  114.7623 O   0  0  0  0  0  0  0  0  0  0  0  0
   59.5755  -43.8573  114.1499 O   0  0  0  0  0  0  0  0  0  0  0  0
   60.1997  -49.2816  113.9204 C   0  0  0  0  0  0  0  0  0  0  0  0
   62.2649  -43.0349  116.6186 C   0  0  0  0  0  0  0  0  0  0  0  0
   62.9784  -45.6633  114.7250 O   0  0  0  0  0  0  0  0  0  0  0  0
   57.1060  -48.7846  111.9736 O   0  0  0  0  0  0  0  0  0  0  0  0
   58.0726  -46.5090  112.3770 C   0  0  0  0  0  0  0  0  0  0  0  0
   60.1510  -46.2200  113.4100 C   0  0  0  0  0  0  0  0  0  0  0  0
   58.9281  -47.1584  113.3934 N   0  0  0  0  0  0  0  0  0  0  0  0
   63.2557  -42.4041  116.3248 O   0  0  0  0  0  0  0  0  0  0  0  0
   56.8151  -47.4110  112.2986 C   0  0  0  0  0  0  0  0  0  0  0  0
   57.2413  -44.1539  112.3672 O   0  0  0  0  0  0  0  0  0  0  0  0
   62.0321  -43.2156  117.8586 O   0  0  0  0  0  0  0  0  0  0  0  0
   59.2527  -48.5567  113.0080 C   0  0  0  0  0  0  0  0  0  0  0  0
   58.0282  -49.3436  112.8998 C   0  0  0  0  0  0  0  0  0  0  0  0
   59.8815  -50.6343  114.3059 O   0  0  0  0  0  0  0  0  0  0  0  0
   61.9289  -46.2641  116.7547 O   0  0  0  0  0  0  0  0  0  0  0  0
   61.0145  -43.3651  114.3132 C   0  0  0  0  0  0  0  0  0  0  0  0
   59.4354  -44.7903  113.0658 C   0  0  0  0  0  0  0  0  0  0  0  0
   61.3990  -43.7742  115.5848 C   0  0  0  0  0  0  0  0  0  0  0  0
   57.9579  -45.1620  113.0549 C   0  0  0  0  0  0  0  0  0  0  0  0
  1  2  1  0
  1  6  2  0
  1 18  1  0
  1 21  1  0
  2  9  1  0
  3 19  1  0
  3 20  1  0
  4 15  1  0
  4 17  1  0
  5 11  1  0
  5 14  2  0
  5 21  1  0
  7 12  1  0
  7 16  1  0
  8 10  1  0
  8 12  1  0
  8 22  1  0
  9 10  1  0
  9 20  1  0
 10 15  1  0
 13 22  1  0
 15 16  1  0
 19 21  1  0
 20 22  1  0
M  END
$$$$
