
     RDKit          3D

 19 20  0  0  0  0  0  0  0  0999 V2000
   62.3233  -43.7745  115.4939 C   0  0  0  0  0  0  0  0  0  0  0  0
   59.5056  -48.5956  113.5744 C   0  0  0  0  0  0  0  0  0  0  0  0
   59.2080  -44.9040  112.8111 C   0  0  0  0  0  0  0  0  0  0  0  0
   59.2415  -47.0554  113.8971 C   0  0  0  0  0  0  0  0  0  0  0  0
   61.1248  -45.5103  114.1016 C   0  0  0  0  0  0  0  0  0  0  0  0
   61.0230  -41.9912  116.2251 O   0  0  0  0  0  0  0  0  0  0  0  0
   59.8530  -44.6385  114.1516 C   0  0  0  0  0  0  0  0  0  0  0  0
   60.1539  -43.2450  114.4425 N   0  0  0  0  0  0  0  0  0  0  0  0
   63.0645  -43.4684  116.8368 C   0  0  0  0  0  0  0  0  0  0  0  0
   61.7198  -45.3539  112.8612 O   0  0  0  0  0  0  0  0  0  0  0  0
   63.1280  -45.9907  115.2721 O   0  0  0  0  0  0  0  0  0  0  0  0
   60.5718  -46.7916  114.2119 O   0  0  0  0  0  0  0  0  0  0  0  0
   58.0451  -44.1848  112.7135 O   0  0  0  0  0  0  0  0  0  0  0  0
   60.3082  -49.2148  114.7085 C   0  0  0  0  0  0  0  0  0  0  0  0
   61.1354  -42.9697  115.4201 C   0  0  0  0  0  0  0  0  0  0  0  0
   61.2159  -50.1934  114.3276 O   0  0  0  0  0  0  0  0  0  0  0  0
   58.7953  -46.3375  112.6423 C   0  0  0  0  0  0  0  0  0  0  0  0
   57.3958  -46.6210  112.6068 O   0  0  0  0  0  0  0  0  0  0  0  0
   61.9488  -45.1978  115.3307 C   0  0  0  0  0  0  0  0  0  0  0  0
  1  9  1  0
  1 15  1  0
  1 19  1  0
  2  4  1  0
  2 14  1  0
  3  7  1  0
  3 13  1  0
  3 17  1  0
  4 12  1  0
  4 17  1  0
  5  7  1  0
  5 10  1  0
  5 12  1  0
  5 19  1  0
  6 15  2  0
  7  8  1  0
  8 15  1  0
 11 19  1  0
 14 16  1  0
 17 18  1  0
M  END
$$$$
