
     RDKit          3D

 39 42  0  0  0  0  0  0  0  0999 V2000
  -26.1995    5.6772  -33.9204 P   0  0  1  0  0  0  0  0  0  0  0  0
  -22.1057    3.9188  -29.1233 O   0  0  0  0  0  0  0  0  0  0  0  0
  -28.4111    4.1971  -36.2048 O   0  0  0  0  0  0  0  0  0  0  0  0
  -19.5502    1.5218  -30.6811 C   0  0  0  0  0  0  0  0  0  0  0  0
  -27.7402    4.9507  -33.7327 O   0  0  0  0  0  0  0  0  0  0  0  0
  -21.7792    0.2123  -30.7191 N   0  0  0  0  0  0  0  0  0  0  0  0
  -23.2054    1.0910  -33.3170 C   0  0  2  0  0  0  0  0  0  0  0  0
  -28.4915    3.8392  -34.6850 P   0  0  1  0  0  0  0  0  0  0  0  0
  -25.1606    1.3032  -31.9842 O   0  0  0  0  0  0  0  0  0  0  0  0
  -22.0059    2.5731  -31.1744 C   0  0  2  0  0  0  0  0  0  0  0  0
  -24.3590    0.5538  -34.1516 C   0  0  2  0  0  0  0  0  0  0  0  0
  -18.9816   -2.2749  -30.2664 C   0  0  0  0  0  0  0  0  0  0  0  0
  -29.9427    3.6846  -34.2846 O   0  0  0  0  0  0  0  0  0  0  0  0
  -20.9073   -0.9956  -30.5492 C   0  0  0  0  0  0  0  0  0  0  0  0
  -20.8794   -3.3867  -30.3398 C   0  0  0  0  0  0  0  0  0  0  0  0
  -24.9361    6.1665  -32.8967 O   0  0  0  0  0  0  0  0  0  0  0  0
  -23.5631    5.5243  -32.9140 C   0  0  0  0  0  0  0  0  0  0  0  0
  -27.4767    1.6121  -33.3837 C   0  0  0  0  0  0  0  0  0  0  0  0
  -27.4978   -0.6929  -32.6764 O   0  0  0  0  0  0  0  0  0  0  0  0
  -19.5511   -3.3959  -30.2675 N   0  0  0  0  0  0  0  0  0  0  0  0
  -18.7049    0.1837  -30.6204 N   0  0  0  0  0  0  0  0  0  0  0  0
  -25.6088    4.8671  -35.0913 O   0  0  0  0  0  0  0  0  0  0  0  0
  -21.9849    4.0040  -30.4109 C   0  0  1  0  0  0  0  0  0  0  0  0
  -26.5309    7.2762  -34.3971 O   0  0  0  0  0  0  0  0  0  0  0  0
  -26.7996    0.2763  -33.4009 C   0  0  2  0  0  0  0  0  0  0  0  0
  -27.6888    2.2835  -34.6129 N   0  0  0  0  0  0  0  0  0  0  0  0
  -22.9540    5.9391  -31.6256 C   0  0  1  0  0  0  0  0  0  0  0  0
  -19.5009   -0.9795  -30.4851 C   0  0  0  0  0  0  0  0  0  0  0  0
  -23.2785    4.9646  -30.6380 C   0  0  0  0  0  0  0  0  0  0  0  0
  -23.2751    2.0967  -31.2145 O   0  0  0  0  0  0  0  0  0  0  0  0
  -21.6224   -2.1985  -30.4753 C   0  0  0  0  0  0  0  0  0  0  0  0
  -23.0650   -2.0922  -30.5521 O   0  0  0  0  0  0  0  0  0  0  0  0
  -25.3871    0.2436  -33.1069 C   0  0  2  0  0  0  0  0  0  0  0  0
  -24.0092    2.0725  -32.4330 C   0  0  1  0  0  0  0  0  0  0  0  0
  -21.5335   -4.5524  -30.3117 N   0  0  0  0  0  0  0  0  0  0  0  0
  -21.6387    6.4647  -31.5716 O   0  0  0  0  0  0  0  0  0  0  0  0
  -23.8751   -0.4850  -34.9131 O   0  0  0  0  0  0  0  0  0  0  0  0
  -21.2781    1.4947  -30.7412 C   0  0  2  0  0  0  0  0  0  0  0  0
  -22.2154    1.7586  -34.1351 O   0  0  0  0  0  0  0  0  0  0  0  0
  1  5  1  0
  1 16  1  0
  1 22  1  6
  1 24  2  0
 23  2  1  1
  8  3  1  6
  4 21  2  0
  4 38  1  0
  5  8  1  0
  6 14  1  0
 38  6  1  6
  7 11  1  0
  7 34  1  0
  7 39  1  6
  8 13  2  0
  8 26  1  0
 33  9  1  1
  9 34  1  0
 10 23  1  0
 10 30  1  1
 10 38  1  0
 11 33  1  0
 11 37  1  1
 12 20  1  0
 12 28  1  0
 14 28  2  0
 14 31  1  0
 15 20  2  0
 15 31  1  0
 15 35  1  0
 16 17  1  0
 17 27  1  0
 18 25  1  0
 18 26  1  0
 25 19  1  1
 21 28  1  0
 23 29  1  0
 25 33  1  0
 27 29  1  0
 27 36  1  6
 34 30  1  1
 31 32  1  0
M  END
