
     RDKit          3D

 16 16  0  0  0  0  0  0  0  0999 V2000
   37.9425  -38.2455   10.0399 C   0  0  0  0  0  0  0  0  0  0  0  0
   34.4653  -41.4497    6.3091 N   0  0  0  0  0  0  0  0  0  0  0  0
   34.8693  -40.6923    4.2733 N   0  0  0  0  0  0  0  0  0  0  0  0
   38.0603  -38.2949    8.6458 C   0  0  0  0  0  0  0  0  0  0  0  0
   39.1043  -39.1128   10.9793 Cl  0  0  0  0  0  0  0  0  0  0  0  0
   37.3173  -37.7100    6.2893 C   0  0  2  0  0  0  0  0  0  0  0  0
   34.9317  -36.0180    7.5095 Cl  0  0  0  0  0  0  0  0  0  0  0  0
   36.1194  -36.8894    8.4156 C   0  0  0  0  0  0  0  0  0  0  0  0
   38.6879  -37.1769    5.8476 C   0  0  0  0  0  0  0  0  0  0  0  0
   35.7627  -39.6482    6.0714 N   0  0  0  0  0  0  0  0  0  0  0  0
   35.5067  -40.9225    5.5139 C   0  0  0  0  0  0  0  0  0  0  0  0
   37.1558  -37.6155    7.8047 C   0  0  0  0  0  0  0  0  0  0  0  0
   36.7530  -37.4400   12.1338 C   0  0  0  0  0  0  0  0  0  0  0  0
   36.9126  -37.5150   10.6421 C   0  0  0  0  0  0  0  0  0  0  0  0
   37.1030  -39.1478    5.7528 C   0  0  0  0  0  0  0  0  0  0  0  0
   36.0044  -36.8407    9.8127 C   0  0  0  0  0  0  0  0  0  0  0  0
  1  4  2  0
  1  5  1  0
  1 14  1  0
  2 11  1  0
  3 11  1  0
  4 12  1  0
  6  9  1  1
  6 12  1  0
  6 15  1  0
  7  8  1  0
  8 12  2  0
  8 16  1  0
 10 11  1  0
 10 15  1  0
 13 14  1  0
 14 16  2  0
M  END
$$$$
