
     RDKit          3D

 30 32  0  0  0  0  0  0  0  0999 V2000
   -5.0733  -57.3991  -17.9558 C   0  0  0  0  0  0  0  0  0  0  0  0
   -6.7545  -54.5545  -13.4466 O   0  0  0  0  0  0  0  0  0  0  0  0
   -7.3852  -53.1916  -17.2303 C   0  0  1  0  0  0  0  0  0  0  0  0
   -6.4516  -47.3737  -19.6670 O   0  0  0  0  0  0  0  0  0  0  0  0
   -7.5227  -56.7076  -18.0642 N   0  0  0  0  0  0  0  0  0  0  0  0
   -5.1992  -58.7462  -18.2734 N   0  0  0  0  0  0  0  0  0  0  0  0
  -10.2031  -48.6799  -19.0053 P   0  0  0  0  0  0  0  0  0  0  0  0
   -7.2682  -49.5541  -18.5709 O   0  0  0  0  0  0  0  0  0  0  0  0
   -6.1684  -56.5229  -17.8711 C   0  0  0  0  0  0  0  0  0  0  0  0
   -8.9876  -53.3655  -12.9115 O   0  0  0  0  0  0  0  0  0  0  0  0
   -8.0515  -55.5198  -17.8604 C   0  0  0  0  0  0  0  0  0  0  0  0
   -7.1079  -54.5834  -17.5191 N   0  0  0  0  0  0  0  0  0  0  0  0
  -11.5810  -48.1129  -18.9740 O   0  0  0  0  0  0  0  0  0  0  0  0
   -5.8888  -55.2045  -17.5455 C   0  0  0  0  0  0  0  0  0  0  0  0
   -3.7097  -55.5994  -17.4256 C   0  0  0  0  0  0  0  0  0  0  0  0
   -4.6796  -54.6697  -17.3051 N   0  0  0  0  0  0  0  0  0  0  0  0
   -6.7443  -52.6294  -15.9510 C   0  0  1  0  0  0  0  0  0  0  0  0
   -6.9130  -52.4108  -18.3482 O   0  0  0  0  0  0  0  0  0  0  0  0
   -7.5895  -48.3414  -19.5657 P   0  0  2  0  0  0  0  0  0  0  0  0
   -7.7936  -49.1118  -20.9567 O   0  0  0  0  0  0  0  0  0  0  0  0
   -7.9347  -53.8472  -14.0055 P   0  0  0  0  0  0  0  0  0  0  0  0
  -10.1265  -49.7723  -20.1775 O   0  0  0  0  0  0  0  0  0  0  0  0
   -5.9996  -50.1822  -18.6929 C   0  0  0  0  0  0  0  0  0  0  0  0
   -3.8331  -56.9071  -17.7393 N   0  0  0  0  0  0  0  0  0  0  0  0
   -9.9687  -49.5960  -17.7254 O   0  0  0  0  0  0  0  0  0  0  0  0
   -5.9657  -51.4490  -17.8432 C   0  0  1  0  0  0  0  0  0  0  0  0
   -6.3407  -51.2374  -16.3884 C   0  0  0  0  0  0  0  0  0  0  0  0
   -7.6500  -52.5276  -14.8610 O   0  0  0  0  0  0  0  0  0  0  0  0
   -8.9919  -47.6708  -19.1851 N   0  0  0  0  0  0  0  0  0  0  0  0
   -8.8418  -54.7392  -14.9663 O   0  0  0  0  0  0  0  0  0  0  0  0
  1  6  1  0
  1  9  2  0
  1 24  1  0
  2 21  2  0
  3 12  1  6
  3 17  1  0
  3 18  1  0
  4 19  2  0
  5  9  1  0
  5 11  2  0
  7 13  2  0
  7 22  1  0
  7 25  1  0
  7 29  1  0
  8 19  1  0
  8 23  1  0
  9 14  1  0
 10 21  1  0
 11 12  1  0
 12 14  1  0
 14 16  2  0
 15 16  1  0
 15 24  2  0
 17 27  1  0
 17 28  1  1
 18 26  1  0
 19 20  1  6
 19 29  1  0
 21 28  1  0
 21 30  1  0
 26 23  1  1
 26 27  1  0
M  END
$$$$
