
     RDKit          3D

 24 26  0  0  0  0  0  0  0  0999 V2000
   -1.8514   -2.3340   -0.8697 O   0  0  0  0  0  0  0  0  0  0  0  0
    1.5540   -0.2789    0.6614 C   0  0  0  0  0  0  0  0  0  0  0  0
    6.6070    1.2567   -1.3474 C   0  0  0  0  0  0  0  0  0  0  0  0
   -7.3709    0.8797    0.3839 C   0  0  0  0  0  0  0  0  0  0  0  0
   -7.8319    1.3781   -0.9073 N   0  0  0  0  0  0  0  0  0  0  0  0
    5.2350    0.4148    0.4772 C   0  0  0  0  0  0  0  0  0  0  0  0
   -4.8680    1.1742    0.3455 C   0  0  0  0  0  0  0  0  0  0  0  0
   -3.3707   -0.7018   -0.0658 C   0  0  0  0  0  0  0  0  0  0  0  0
   -5.9796    0.3245    0.2522 C   0  0  0  0  0  0  0  0  0  0  0  0
   -3.5747    0.6664    0.1907 C   0  0  0  0  0  0  0  0  0  0  0  0
   -5.7831   -1.0349   -0.0297 C   0  0  0  0  0  0  0  0  0  0  0  0
   -0.8626   -0.5870    0.3314 N   0  0  0  0  0  0  0  0  0  0  0  0
   -2.0041   -1.2517   -0.2397 C   0  0  0  0  0  0  0  0  0  0  0  0
    0.4960   -0.8578   -0.0541 C   0  0  0  0  0  0  0  0  0  0  0  0
    3.1204   -1.3678   -0.8230 C   0  0  0  0  0  0  0  0  0  0  0  0
   -4.4907   -1.5441   -0.1859 C   0  0  0  0  0  0  0  0  0  0  0  0
    3.9565    0.0531    1.0273 N   0  0  0  0  0  0  0  0  0  0  0  0
    7.7409    1.1800   -0.5345 C   0  0  0  0  0  0  0  0  0  0  0  0
    6.3763    0.3640    1.2926 C   0  0  0  0  0  0  0  0  0  0  0  0
    7.6249    0.7376    0.7858 C   0  0  0  0  0  0  0  0  0  0  0  0
    5.3568    0.8837   -0.8442 C   0  0  0  0  0  0  0  0  0  0  0  0
    2.8772   -0.5188    0.2682 C   0  0  0  0  0  0  0  0  0  0  0  0
    0.7703   -1.6557   -1.1238 N   0  0  0  0  0  0  0  0  0  0  0  0
    2.0436   -1.9226   -1.5156 C   0  0  0  0  0  0  0  0  0  0  0  0
  1 13  2  0
  2 14  1  0
  2 22  2  0
  3 18  2  0
  3 21  1  0
  4  5  1  0
  4  9  1  0
  6 17  1  0
  6 19  1  0
  6 21  2  0
  7  9  1  0
  7 10  2  0
  8 10  1  0
  8 13  1  0
  8 16  2  0
  9 11  2  0
 11 16  1  0
 12 13  1  0
 12 14  1  0
 14 23  2  0
 15 22  1  0
 15 24  2  0
 17 22  1  0
 18 20  1  0
 19 20  2  0
 23 24  1  0
M  END
