
     RDKit          3D

 23 26  0  0  0  0  0  0  0  0999 V2000
   -5.6449    0.1481    1.0065 C   0  0  0  0  0  0  0  0  0  0  0  0
   -5.4080    1.1789   -0.1033 C   0  0  1  0  0  0  0  0  0  0  0  0
    7.5280    0.2752   -2.1652 F   0  0  0  0  0  0  0  0  0  0  0  0
   -1.4171   -1.2967    1.0571 C   0  0  0  0  0  0  0  0  0  0  0  0
    2.1587   -0.8701    0.3842 N   0  0  0  0  0  0  0  0  0  0  0  0
    6.6980   -0.1693   -1.1897 C   0  0  0  0  0  0  0  0  0  0  0  0
   -3.3299    0.1734    0.4663 N   0  0  0  0  0  0  0  0  0  0  0  0
    6.3537   -1.4116    0.8161 N   0  0  0  0  0  0  0  0  0  0  0  0
    7.1927   -0.9578   -0.1510 C   0  0  0  0  0  0  0  0  0  0  0  0
   -1.0531    0.7465   -0.1303 N   0  0  0  0  0  0  0  0  0  0  0  0
    1.1498    1.4294   -0.7757 C   0  0  0  0  0  0  0  0  0  0  0  0
    3.0267   -0.0029   -0.2120 C   0  0  0  0  0  0  0  0  0  0  0  0
    4.4792   -0.3145   -0.2085 C   0  0  0  0  0  0  0  0  0  0  0  0
   -3.8896    1.3315   -0.2109 C   0  0  0  0  0  0  0  0  0  0  0  0
    5.0264   -1.1161    0.8097 C   0  0  0  0  0  0  0  0  0  0  0  0
    5.3392    0.1505   -1.2207 C   0  0  0  0  0  0  0  0  0  0  0  0
    0.2867    0.5187   -0.1662 C   0  0  0  0  0  0  0  0  0  0  0  0
    0.8189   -0.6426    0.4199 C   0  0  0  0  0  0  0  0  0  0  0  0
   -1.9201   -0.1233    0.4628 C   0  0  0  0  0  0  0  0  0  0  0  0
    2.5233    1.1750   -0.7989 C   0  0  0  0  0  0  0  0  0  0  0  0
   -0.0436   -1.5515    1.0335 C   0  0  0  0  0  0  0  0  0  0  0  0
   -4.3406   -0.6285    1.1394 C   0  0  0  0  0  0  0  0  0  0  0  0
   -5.9622    0.7454   -1.3222 O   0  0  0  0  0  0  0  0  0  0  0  0
  1  2  1  0
  1 22  1  0
  2 14  1  0
  2 23  1  6
  3  6  1  0
  4 19  2  0
  4 21  1  0
  5 12  2  0
  5 18  1  0
  6  9  1  0
  6 16  2  0
  7 14  1  0
  7 19  1  0
  7 22  1  0
  8  9  2  0
  8 15  1  0
 10 17  2  0
 10 19  1  0
 11 17  1  0
 11 20  2  0
 12 13  1  0
 12 20  1  0
 13 15  2  0
 13 16  1  0
 17 18  1  0
 18 21  2  0
M  END
