
     RDKit          3D

 25 27  0  0  0  0  0  0  0  0999 V2000
   -0.5508   -0.7706   -1.2274 N   0  0  0  0  0  0  0  0  0  0  0  0
    2.8820   -0.8106    1.3511 F   0  0  0  0  0  0  0  0  0  0  0  0
   -4.5034   -1.8328    0.0583 C   0  0  0  0  0  0  0  0  0  0  0  0
    1.4631    2.0134    0.8099 O   0  0  0  0  0  0  0  0  0  0  0  0
   -5.3418   -0.8125    0.5385 C   0  0  0  0  0  0  0  0  0  0  0  0
   -7.5950   -0.0574    1.2860 O   0  0  0  0  0  0  0  0  0  0  0  0
    0.8475    1.1171    0.1717 C   0  0  0  0  0  0  0  0  0  0  0  0
    2.8898    0.6057   -1.1408 N   0  0  0  0  0  0  0  0  0  0  0  0
    6.0705    1.7088    0.4830 C   0  0  0  0  0  0  0  0  0  0  0  0
    1.5061    0.3712   -0.8213 C   0  0  0  0  0  0  0  0  0  0  0  0
   -3.4513    0.7197    0.4959 C   0  0  0  0  0  0  0  0  0  0  0  0
   -0.4661    0.8850    0.4413 N   0  0  0  0  0  0  0  0  0  0  0  0
   -4.8023    0.4664    0.7516 C   0  0  0  0  0  0  0  0  0  0  0  0
   -3.1531   -1.5794   -0.1986 C   0  0  0  0  0  0  0  0  0  0  0  0
    1.3797   -1.4150   -2.6136 C   0  0  0  0  0  0  0  0  0  0  0  0
    4.9339    0.1959    1.9903 C   0  0  0  0  0  0  0  0  0  0  0  0
   -1.1739   -0.0499   -0.2573 C   0  0  0  0  0  0  0  0  0  0  0  0
   -2.6085   -0.3036    0.0268 C   0  0  0  0  0  0  0  0  0  0  0  0
    5.0368    1.5620   -0.4465 C   0  0  0  0  0  0  0  0  0  0  0  0
   -6.7720   -1.0756    0.8115 C   0  0  0  0  0  0  0  0  0  0  0  0
   -7.2588   -2.2225    0.6178 O   0  0  0  0  0  0  0  0  0  0  0  0
    6.0169    1.0298    1.7022 C   0  0  0  0  0  0  0  0  0  0  0  0
    0.7603   -0.5860   -1.5293 C   0  0  0  0  0  0  0  0  0  0  0  0
    3.9318    0.7454   -0.1591 C   0  0  0  0  0  0  0  0  0  0  0  0
    3.8955    0.0446    1.0649 C   0  0  0  0  0  0  0  0  0  0  0  0
  1 17  2  0
  1 23  1  0
  2 25  1  0
  3  5  1  0
  3 14  2  0
  4  7  2  0
  5 13  2  0
  5 20  1  0
  6 20  1  0
  7 10  1  0
  7 12  1  0
  8 10  1  0
  8 24  1  0
  9 19  1  0
  9 22  2  0
 10 23  2  0
 11 13  1  0
 11 18  2  0
 12 17  1  0
 14 18  1  0
 15 23  1  0
 16 22  1  0
 16 25  2  0
 17 18  1  0
 19 24  2  0
 20 21  2  0
 24 25  1  0
M  END
