
     RDKit          3D

 15 16  0  0  0  0  0  0  0  0999 V2000
   -0.2128   -0.0789    1.3456 C   0  0  2  0  0  0  0  0  0  0  0  0
    0.6069   -1.0330    0.4633 C   0  0  2  0  0  0  0  0  0  0  0  0
   -1.3524   -0.6441    1.9435 O   0  0  0  0  0  0  0  0  0  0  0  0
    1.7750   -1.5169    1.0719 O   0  0  0  0  0  0  0  0  0  0  0  0
    2.0577    0.9150   -0.3922 C   0  0  0  0  0  0  0  0  0  0  0  0
    0.7935    0.0976   -0.5694 C   0  0  2  0  0  0  0  0  0  0  0  0
    2.8158    1.2417   -1.5117 O   0  0  0  0  0  0  0  0  0  0  0  0
   -0.2037    3.0051   -0.9082 O   0  0  0  0  0  0  0  0  0  0  0  0
   -0.3128   -2.1192   -0.1559 C   0  0  0  0  0  0  0  0  0  0  0  0
   -1.7070    0.0810   -0.6929 C   0  0  0  0  0  0  0  0  0  0  0  0
   -0.4884    0.7051    0.0479 C   0  0  1  0  0  0  0  0  0  0  0  0
    2.4265    1.3126    0.7463 O   0  0  0  0  0  0  0  0  0  0  0  0
   -0.5516    2.2038    0.1750 C   0  0  0  0  0  0  0  0  0  0  0  0
   -1.5885   -1.4839   -0.8208 C   0  0  0  0  0  0  0  0  0  0  0  0
   -0.9754    2.7341    1.2368 O   0  0  0  0  0  0  0  0  0  0  0  0
  1  2  1  0
  1  3  1  6
  1 11  1  0
  2  4  1  1
  2  6  1  0
  2  9  1  0
  6  5  1  1
  5  7  1  0
  5 12  2  0
  6 11  1  0
  8 13  1  0
  9 14  1  0
 10 11  1  0
 10 14  1  0
 11 13  1  1
 13 15  2  0
M  END
