
     RDKit          3D

  7  6  0  0  0  0  0  0  0  0999 V2000
   -1.1582   -0.3344    0.5454 C   0  0  0  0  0  0  0  0  0  0  0  0
    0.1872   -0.7670    0.0613 C   0  0  0  0  0  0  0  0  0  0  0  0
    1.8242    0.5564    1.1911 O   0  0  0  0  0  0  0  0  0  0  0  0
   -1.4698   -0.4247    1.8984 O   0  0  0  0  0  0  0  0  0  0  0  0
    1.1487    0.3733    0.1431 C   0  0  0  0  0  0  0  0  0  0  0  0
    1.2664    1.2582   -0.9241 O   0  0  0  0  0  0  0  0  0  0  0  0
   -1.9959    0.1474   -0.2635 O   0  0  0  0  0  0  0  0  0  0  0  0
  1  2  1  0
  1  4  1  0
  1  7  2  0
  2  5  1  0
  3  5  2  0
  5  6  1  0
M  END
