
     RDKit          3D

  7  6  0  0  0  0  0  0  0  0999 V2000
    3.3193   -7.0282    8.7563 O   0  0  0  0  0  0  0  0  0  0  0  0
    4.6478   -9.9974   10.9673 S   0  0  0  0  0  0  0  0  0  0  0  0
    5.1696  -12.6840   11.6000 N   0  0  0  0  0  0  0  0  0  0  0  0
    1.9645   -8.2601    7.3763 O   0  0  0  0  0  0  0  0  0  0  0  0
    4.2053  -11.5703   11.4071 C   0  0  0  0  0  0  0  0  0  0  0  0
    2.5736   -8.2020    8.6479 C   0  0  0  0  0  0  0  0  0  0  0  0
    2.9281   -9.2175   10.2414 C   0  0  0  0  0  0  0  0  0  0  0  0
  1  6  1  0
  2  5  1  0
  2  7  1  0
  3  5  1  0
  4  6  1  0
  6  7  1  0
M  END
$$$$
