
     RDKit          3D

 22 24  0  0  0  0  0  0  0  0999 V2000
   -1.7029   -0.6818   -0.4248 C   0  0  1  0  0  0  0  0  0  0  0  0
   -0.2553    4.1604    1.7190 O   0  0  0  0  0  0  0  0  0  0  0  0
   -1.9240   -1.8405    2.8818 O   0  0  0  0  0  0  0  0  0  0  0  0
   -2.1901    1.5939    1.2021 O   0  0  0  0  0  0  0  0  0  0  0  0
    1.9042    1.8452   -1.2977 N   0  0  0  0  0  0  0  0  0  0  0  0
   -2.4957   -1.4709    0.5791 C   0  0  2  0  0  0  0  0  0  0  0  0
    3.3250   -1.3502   -2.4185 O   0  0  0  0  0  0  0  0  0  0  0  0
    0.8762    1.4162   -0.5224 C   0  0  0  0  0  0  0  0  0  0  0  0
   -0.0685    2.2984    0.2093 C   0  0  1  0  0  0  0  0  0  0  0  0
   -1.4206   -1.9075    1.5754 C   0  0  1  0  0  0  0  0  0  0  0  0
    2.7090    0.9424   -1.9217 C   0  0  0  0  0  0  0  0  0  0  0  0
    0.6199    0.1060   -0.3765 N   0  0  0  0  0  0  0  0  0  0  0  0
   -2.4664    0.3173   -1.0501 O   0  0  0  0  0  0  0  0  0  0  0  0
    3.1863   -2.7650   -2.3398 C   0  0  0  0  0  0  0  0  0  0  0  0
   -3.1132   -2.5737   -0.0306 O   0  0  0  0  0  0  0  0  0  0  0  0
    2.4795   -0.4366   -1.7703 C   0  0  0  0  0  0  0  0  0  0  0  0
   -0.5646   -0.1188    0.4425 C   0  0  1  0  0  0  0  0  0  0  0  0
   -0.8251    1.2793    1.0992 C   0  0  2  0  0  0  0  0  0  0  0  0
    3.6625    1.3505   -2.6357 O   0  0  0  0  0  0  0  0  0  0  0  0
    0.6688    3.3741    1.0198 C   0  0  0  0  0  0  0  0  0  0  0  0
   -0.2890   -1.0655    1.4533 O   0  0  0  0  0  0  0  0  0  0  0  0
    1.3960   -0.8421   -0.9686 C   0  0  0  0  0  0  0  0  0  0  0  0
  1  6  1  0
  1 13  1  1
  1 17  1  0
  2 20  1  0
 10  3  1  1
 18  4  1  6
  5  8  2  0
  5 11  1  0
  6 10  1  0
  6 15  1  6
  7 14  1  0
  7 16  1  0
  8  9  1  0
  8 12  1  0
  9 18  1  0
  9 20  1  1
 10 21  1  0
 11 16  1  0
 11 19  2  0
 12 17  1  0
 12 22  1  0
 16 22  2  0
 17 18  1  0
 17 21  1  1
M  END
