
     RDKit          3D

 15 16  0  0  0  0  0  0  0  0999 V2000
   -4.0150    0.3402   -0.4799 C   0  0  0  0  0  0  0  0  0  0  0  0
   -2.4115   -0.9043    0.8419 C   0  0  0  0  0  0  0  0  0  0  0  0
   -1.3674   -0.1023    0.3491 C   0  0  0  0  0  0  0  0  0  0  0  0
   -1.6634    0.9108   -0.5818 C   0  0  0  0  0  0  0  0  0  0  0  0
    0.7875   -1.2253   -0.2626 C   0  0  2  0  0  0  0  0  0  0  0  0
    2.3300    1.6518   -0.7002 C   0  0  0  0  0  0  0  0  0  0  0  0
    2.8426   -1.5758    0.9340 O   0  0  0  0  0  0  0  0  0  0  0  0
    0.0584   -0.3770    0.7675 C   0  0  1  0  0  0  0  0  0  0  0  0
   -2.9827    1.1324   -0.9883 C   0  0  0  0  0  0  0  0  0  0  0  0
    0.5898   -2.5941   -0.0194 O   0  0  0  0  0  0  0  0  0  0  0  0
    0.7688    0.8299    0.9378 O   0  0  0  0  0  0  0  0  0  0  0  0
    2.2230   -0.8026   -0.0646 C   0  0  2  0  0  0  0  0  0  0  0  0
    2.0750    0.6408    0.4285 C   0  0  1  0  0  0  0  0  0  0  0  0
   -3.7293   -0.6788    0.4324 C   0  0  0  0  0  0  0  0  0  0  0  0
    2.1370    2.9616   -0.2389 O   0  0  0  0  0  0  0  0  0  0  0  0
  1  9  2  0
  1 14  1  0
  2  3  1  0
  2 14  2  0
  3  4  2  0
  8  3  1  6
  4  9  1  0
  5  8  1  0
  5 10  1  1
  5 12  1  0
 13  6  1  6
  6 15  1  0
 12  7  1  1
  8 11  1  0
 11 13  1  0
 12 13  1  0
M  END
