
     RDKit          3D

 13 13  0  0  0  0  0  0  0  0999 V2000
   -0.7675   -0.3890    0.4801 C   0  0  2  0  0  0  0  0  0  0  0  0
    1.2076    0.4583    1.6255 O   0  0  0  0  0  0  0  0  0  0  0  0
    0.7143   -0.5736    0.7977 C   0  0  2  0  0  0  0  0  0  0  0  0
   -1.2580    1.7576   -0.9173 C   0  0  0  0  0  0  0  0  0  0  0  0
   -2.6503    1.7663   -0.7618 O   0  0  0  0  0  0  0  0  0  0  0  0
   -0.7311    0.3132   -0.9129 C   0  0  1  0  0  0  0  0  0  0  0  0
    3.1298    1.0499   -0.7735 O   0  0  0  0  0  0  0  0  0  0  0  0
    3.7684   -1.0947   -0.2583 O   0  0  0  0  0  0  0  0  0  0  0  0
    2.7959   -0.1473   -0.5620 C   0  0  0  0  0  0  0  0  0  0  0  0
   -1.3815    0.3928    1.4826 O   0  0  0  0  0  0  0  0  0  0  0  0
    1.3496   -0.5510   -0.5892 C   0  0  2  0  0  0  0  0  0  0  0  0
    0.5995    0.3252   -1.3943 O   0  0  0  0  0  0  0  0  0  0  0  0
   -1.4669   -1.7666    0.3876 C   0  0  0  0  0  0  0  0  0  0  0  0
  1  3  1  0
  1  6  1  0
  1 10  1  0
  1 13  1  6
  3  2  1  1
  3 11  1  0
  4  5  1  0
  6  4  1  1
  6 12  1  0
  7  9  2  0
  8  9  1  0
 11  9  1  1
 11 12  1  0
M  END
