
     RDKit          3D

 13 12  0  0  0  0  0  0  0  0999 V2000
   -2.5880    1.1585   -0.5314 C   0  0  0  0  0  0  0  0  0  0  0  0
    1.7697    1.7268    1.1289 O   0  0  0  0  0  0  0  0  0  0  0  0
   -1.2204   -1.0559   -0.5429 C   0  0  0  0  0  0  0  0  0  0  0  0
    1.1612    0.0699   -0.5363 C   0  0  1  0  0  0  0  0  0  0  0  0
    0.6809    1.1331   -1.3287 O   0  0  0  0  0  0  0  0  0  0  0  0
    2.8518   -0.4008    1.3994 C   0  0  0  0  0  0  0  0  0  0  0  0
   -2.0478   -0.0304   -1.3453 C   0  0  0  0  0  0  0  0  0  0  0  0
    2.2744    0.6280    0.4119 C   0  0  2  0  0  0  0  0  0  0  0  0
    1.7626   -2.3387   -1.0265 O   0  0  0  0  0  0  0  0  0  0  0  0
    2.2661   -0.6975   -2.5427 O   0  0  0  0  0  0  0  0  0  0  0  0
   -3.5268    0.7295    0.5954 C   0  0  0  0  0  0  0  0  0  0  0  0
   -0.0389   -0.4929    0.2852 C   0  0  0  0  0  0  0  0  0  0  0  0
    1.7446   -1.0074   -1.4372 C   0  0  0  0  0  0  0  0  0  0  0  0
  1  7  1  0
  1 11  1  0
  2  8  1  0
  3  7  1  0
  3 12  1  0
  4  5  1  6
  4  8  1  0
  4 12  1  0
  4 13  1  0
  8  6  1  1
  9 13  1  0
 10 13  2  0
M  END
