
     RDKit          3D

 11 10  0  0  0  0  0  0  0  0999 V2000
   -0.7524   -1.8849    0.0223 O   0  0  0  0  0  0  0  0  0  0  0  0
   -0.0259    0.4042    0.3411 C   0  0  1  0  0  0  0  0  0  0  0  0
   -1.1553   -0.5494   -0.1328 C   0  0  2  0  0  0  0  0  0  0  0  0
    2.1034    1.4279   -0.1842 O   0  0  0  0  0  0  0  0  0  0  0  0
    1.9216   -0.8698   -0.8063 C   0  0  0  0  0  0  0  0  0  0  0  0
   -2.4413   -0.6879    2.0159 O   0  0  0  0  0  0  0  0  0  0  0  0
   -2.4079   -0.3320    0.6707 C   0  0  0  0  0  0  0  0  0  0  0  0
   -3.4219    0.1880    0.1326 O   0  0  0  0  0  0  0  0  0  0  0  0
    1.1814    0.4691   -0.6395 C   0  0  1  0  0  0  0  0  0  0  0  0
   -0.5347    1.7023    0.5399 O   0  0  0  0  0  0  0  0  0  0  0  0
    2.2798   -1.4173    0.4348 O   0  0  0  0  0  0  0  0  0  0  0  0
  3  1  1  1
  2  3  1  0
  2  9  1  0
  2 10  1  6
  3  7  1  0
  9  4  1  1
  5  9  1  0
  5 11  1  0
  6  7  1  0
  7  8  2  0
M  END
