
     RDKit          3D

 20 22  0  0  0  0  0  0  0  0999 V2000
    2.8753   -2.2431    0.4770 C   0  0  0  0  0  0  0  0  0  0  0  0
   -2.5143   -2.5854   -0.2603 O   0  0  0  0  0  0  0  0  0  0  0  0
   -0.5081    1.2779   -0.4265 C   0  0  2  0  0  0  0  0  0  0  0  0
    2.9545    2.9077   -0.2562 O   0  0  0  0  0  0  0  0  0  0  0  0
   -3.6783   -0.1553    0.1623 O   0  0  0  0  0  0  0  0  0  0  0  0
    1.6147   -1.6999    0.7379 C   0  0  0  0  0  0  0  0  0  0  0  0
    0.3538    2.4603   -0.3498 N   0  0  0  0  0  0  0  0  0  0  0  0
   -1.4749   -1.6743   -0.4983 C   0  0  0  0  0  0  0  0  0  0  0  0
    3.8199   -1.5097   -0.2403 C   0  0  0  0  0  0  0  0  0  0  0  0
    1.2623   -0.4281    0.2418 C   0  0  0  0  0  0  0  0  0  0  0  0
   -1.9818    1.5750   -0.0892 C   0  0  1  0  0  0  0  0  0  0  0  0
    2.0144    2.1236   -2.3875 O   0  0  0  0  0  0  0  0  0  0  0  0
    3.5158   -0.2205   -0.6773 C   0  0  0  0  0  0  0  0  0  0  0  0
    2.2549    0.3329   -0.4200 C   0  0  0  0  0  0  0  0  0  0  0  0
   -1.3373   -0.6909    0.7012 C   0  0  1  0  0  0  0  0  0  0  0  0
    1.9383    2.0014   -0.8912 S   0  0  0  0  0  0  0  0  0  0  0  0
   -2.4890    0.3542    0.7112 C   0  0  2  0  0  0  0  0  0  0  0  0
   -1.3331   -1.4382    1.8980 O   0  0  0  0  0  0  0  0  0  0  0  0
   -2.1049    2.7342    0.6983 O   0  0  0  0  0  0  0  0  0  0  0  0
   -0.0785    0.2133    0.5881 C   0  0  2  0  0  0  0  0  0  0  0  0
  1  6  1  0
  1  9  2  0
  2  8  1  0
  3  7  1  1
  3 11  1  0
  3 20  1  0
  4 16  2  0
 17  5  1  6
  6 10  2  0
  7 16  1  0
  8 15  1  0
  9 13  1  0
 10 14  1  0
 20 10  1  6
 11 17  1  0
 11 19  1  1
 12 16  2  0
 13 14  2  0
 14 16  1  0
 15 17  1  0
 15 18  1  1
 15 20  1  0
M  END
