
     RDKit          3D

 21 25  0  0  0  0  0  0  0  0999 V2000
  -17.3547   33.3972    4.3020 N   0  0  0  0  0  0  0  0  0  0  0  0
  -23.5966   38.2872    7.3774 C   0  0  0  0  0  0  0  0  0  0  0  0
  -14.4452   32.4614    1.9023 O   0  0  0  0  0  0  0  0  0  0  0  0
  -19.2446   34.1527    5.4024 C   0  0  0  0  0  0  0  0  0  0  0  0
  -20.1340   37.4870    6.4962 O   0  0  0  0  0  0  0  0  0  0  0  0
  -22.0663   36.0613    6.7147 C   0  0  0  0  0  0  0  0  0  0  0  0
  -19.4616   36.4692    5.8602 C   0  0  0  0  0  0  0  0  0  0  0  0
  -17.5507   35.6713    4.5206 C   0  0  0  0  0  0  0  0  0  0  0  0
  -22.2381   38.4201    7.1080 C   0  0  0  0  0  0  0  0  0  0  0  0
  -16.5055   35.8981    3.6470 C   0  0  0  0  0  0  0  0  0  0  0  0
  -13.7993   33.4079    2.6787 C   0  0  0  0  0  0  0  0  0  0  0  0
  -24.1987   37.0196    7.3628 C   0  0  0  0  0  0  0  0  0  0  0  0
  -18.2990   36.6978    5.1038 C   0  0  0  0  0  0  0  0  0  0  0  0
  -16.6519   33.4511    3.1378 C   0  0  2  0  0  0  0  0  0  0  0  0
  -20.0115   35.1641    5.9681 C   0  0  0  0  0  0  0  0  0  0  0  0
  -21.4575   37.3361    6.7944 C   0  0  0  0  0  0  0  0  0  0  0  0
  -15.1556   33.7105    3.1713 C   0  0  2  0  0  0  0  0  0  0  0  0
  -18.0603   34.3872    4.6734 C   0  0  0  0  0  0  0  0  0  0  0  0
  -23.4212   35.9173    7.0070 C   0  0  0  0  0  0  0  0  0  0  0  0
  -16.1140   34.7958    2.7523 C   0  0  2  0  0  0  0  0  0  0  0  0
  -21.3338   34.9458    6.3833 O   0  0  0  0  0  0  0  0  0  0  0  0
 14  1  1  1
  1 18  1  0
  2  9  1  0
  2 12  2  0
  3 11  1  0
  4 15  1  0
  4 18  2  0
  5  7  1  0
  5 16  1  0
  6 16  1  0
  6 19  2  0
  6 21  1  0
  7 13  1  0
  7 15  2  0
  8 10  1  0
  8 13  2  0
  8 18  1  0
  9 16  2  0
 20 10  1  1
 17 11  1  6
 12 19  1  0
 14 17  1  0
 14 20  1  0
 15 21  1  0
 17 20  1  0
M  END
