
     RDKit          3D

 30 34  0  0  0  0  0  0  0  0999 V2000
   22.8542   54.8944   90.0976 C   0  0  0  0  0  0  0  0  0  0  0  0
   23.9809   56.5457   87.0121 C   0  0  0  0  0  0  0  0  0  0  0  0
   23.8616   57.6563   84.4309 C   0  0  0  0  0  0  0  0  0  0  0  0
   27.0721   58.3415   87.1413 C   0  0  0  0  0  0  0  0  0  0  0  0
   28.2233   57.6710   89.2500 N   0  0  0  0  0  0  0  0  0  0  0  0
   27.6132   56.0484   90.8120 C   0  0  2  0  0  0  0  0  0  0  0  0
   25.1287   56.0418   89.1508 N   0  0  0  0  0  0  0  0  0  0  0  0
   28.2774   59.9945   89.2934 O   0  0  0  0  0  0  0  0  0  0  0  0
   25.1636   57.1000   86.4124 C   0  0  0  0  0  0  0  0  0  0  0  0
   25.0522   57.6481   85.1171 C   0  0  0  0  0  0  0  0  0  0  0  0
   27.3519   57.3157   91.4992 C   0  0  0  0  0  0  0  0  0  0  0  0
   26.2886   57.1879   87.1275 N   0  0  0  0  0  0  0  0  0  0  0  0
   28.9191   59.6589   88.1395 C   0  0  2  0  0  0  0  0  0  0  0  0
   21.6079   56.1111   86.8988 C   0  0  0  0  0  0  0  0  0  0  0  0
   24.9771   54.1778   92.8481 O   0  0  0  0  0  0  0  0  0  0  0  0
   21.7173   54.3176   90.6182 C   0  0  0  0  0  0  0  0  0  0  0  0
   28.1762   56.2781   89.5865 C   0  0  0  0  0  0  0  0  0  0  0  0
   22.7709   56.5893   86.3094 C   0  0  0  0  0  0  0  0  0  0  0  0
   25.2463   55.3197   90.3090 C   0  0  0  0  0  0  0  0  0  0  0  0
   26.3889   55.1797   90.7914 N   0  0  0  0  0  0  0  0  0  0  0  0
   23.9925   55.9970   88.3166 C   0  0  0  0  0  0  0  0  0  0  0  0
   21.7091   53.6944   91.8536 C   0  0  0  0  0  0  0  0  0  0  0  0
   22.8213   53.6382   92.5501 C   0  0  0  0  0  0  0  0  0  0  0  0
   24.0397   54.8381   90.7690 C   0  0  0  0  0  0  0  0  0  0  0  0
   23.9670   54.1873   92.1184 C   0  0  0  0  0  0  0  0  0  0  0  0
   22.8140   55.4922   88.8812 C   0  0  0  0  0  0  0  0  0  0  0  0
   21.6229   55.5885   88.1613 C   0  0  0  0  0  0  0  0  0  0  0  0
   28.8962   60.4368   86.9687 C   0  0  0  0  0  0  0  0  0  0  0  0
   22.7330   57.1426   84.9953 C   0  0  0  0  0  0  0  0  0  0  0  0
   28.3676   58.2795   87.8612 C   0  0  2  0  0  0  0  0  0  0  0  0
  1 16  1  0
  1 24  1  0
  1 26  2  0
  2  9  2  0
  2 18  1  0
  2 21  1  0
  3 10  2  0
  3 29  1  0
  4 12  1  0
 30  4  1  1
  5 17  1  0
  5 30  1  0
  6 11  1  6
  6 17  1  0
  6 20  1  0
  7 19  1  0
  7 21  2  0
  8 13  1  0
  9 10  1  0
  9 12  1  0
 13 28  1  6
 13 30  1  0
 14 18  1  0
 14 27  2  0
 15 25  1  0
 16 22  2  0
 18 29  2  0
 19 20  1  0
 19 24  2  0
 21 26  1  0
 22 23  1  0
 23 25  2  0
 24 25  1  0
 26 27  1  0
M  END
