
     RDKit          3D

 24 25  0  0  0  0  0  0  0  0999 V2000
    3.5463   -0.4459   -0.1509 C   0  0  0  0  0  0  0  0  0  0  0  0
    0.7763   -0.2994   -0.6708 C   0  0  0  0  0  0  0  0  0  0  0  0
    2.8668    0.7827   -0.0664 C   0  0  0  0  0  0  0  0  0  0  0  0
    5.8396   -1.3330   -0.6700 C   0  0  0  0  0  0  0  0  0  0  0  0
   -5.9817    1.3313   -0.6801 C   0  0  0  0  0  0  0  0  0  0  0  0
    7.7647   -0.6694    0.6415 C   0  0  0  0  0  0  0  0  0  0  0  0
   -3.7677    0.1046   -1.9385 O   0  0  0  0  0  0  0  0  0  0  0  0
   -2.9361   -0.9626   -0.0445 N   0  0  0  0  0  0  0  0  0  0  0  0
    7.2117   -1.4034   -0.4101 C   0  0  0  0  0  0  0  0  0  0  0  0
   -3.6732    0.2228   -0.5402 C   0  0  2  0  0  0  0  0  0  0  0  0
   -5.0221    0.7115    1.5701 C   0  0  0  0  0  0  0  0  0  0  0  0
    6.9467    0.1373    1.4355 C   0  0  0  0  0  0  0  0  0  0  0  0
    1.4949    0.8545   -0.3230 C   0  0  0  0  0  0  0  0  0  0  0  0
    2.8218   -1.6004   -0.4975 C   0  0  0  0  0  0  0  0  0  0  0  0
    5.5741    0.2124    1.1797 C   0  0  0  0  0  0  0  0  0  0  0  0
   -1.3884    0.1787    1.5051 C   0  0  0  0  0  0  0  0  0  0  0  0
   -1.5202   -0.7238    0.3001 C   0  0  2  0  0  0  0  0  0  0  0  0
    1.4497   -1.5274   -0.7526 C   0  0  0  0  0  0  0  0  0  0  0  0
   -5.0988    0.3155    0.0818 C   0  0  1  0  0  0  0  0  0  0  0  0
   -1.2374    1.5545    1.3538 O   0  0  0  0  0  0  0  0  0  0  0  0
    5.0042   -0.5230    0.1228 C   0  0  0  0  0  0  0  0  0  0  0  0
   -7.2668    1.4037   -0.1219 O   0  0  0  0  0  0  0  0  0  0  0  0
   -1.4555   -0.3156    2.6623 O   0  0  0  0  0  0  0  0  0  0  0  0
   -0.7102   -0.2318   -0.9216 C   0  0  0  0  0  0  0  0  0  0  0  0
  1  3  1  0
  1 14  2  0
  1 21  1  0
  2 13  1  0
  2 18  2  0
  2 24  1  0
  3 13  2  0
  4  9  1  0
  4 21  2  0
  5 19  1  0
  5 22  1  0
  6  9  2  0
  6 12  1  0
 10  7  1  6
  8 10  1  0
  8 17  1  0
 10 19  1  0
 19 11  1  1
 12 15  2  0
 14 18  1  0
 15 21  1  0
 16 17  1  0
 16 20  1  0
 16 23  2  0
 17 24  1  6
M  END
