
     RDKit          3D

 20 20  0  0  0  0  0  0  0  0999 V2000
   -0.1895    0.7718    0.8437 C   0  0  0  0  0  0  0  0  0  0  0  0
   -2.1937   -1.3423    1.7836 C   0  0  0  0  0  0  0  0  0  0  0  0
    2.8501   -0.9780    0.2622 C   0  0  0  0  0  0  0  0  0  0  0  0
    4.1942   -1.2164   -0.0424 C   0  0  0  0  0  0  0  0  0  0  0  0
   -2.8993    0.1728   -1.5850 C   0  0  0  0  0  0  0  0  0  0  0  0
   -1.6069    0.9993    1.1605 C   0  0  0  0  0  0  0  0  0  0  0  0
    2.3536    0.3322    0.2697 C   0  0  0  0  0  0  0  0  0  0  0  0
    7.5427   -0.5880   -0.9066 N   0  0  0  0  0  0  0  0  0  0  0  0
   -1.0746   -2.1511    1.6038 O   0  0  0  0  0  0  0  0  0  0  0  0
   -4.9735   -1.1500   -2.0524 O   0  0  0  0  0  0  0  0  0  0  0  0
    3.2062    1.4031   -0.0289 C   0  0  0  0  0  0  0  0  0  0  0  0
   -2.4836   -0.2235    0.8150 C   0  0  1  0  0  0  0  0  0  0  0  0
   -2.2570   -0.6834   -0.5731 N   0  0  0  0  0  0  0  0  0  0  0  0
   -4.3932    0.0241   -1.5830 C   0  0  0  0  0  0  0  0  0  0  0  0
    4.5505    1.1647   -0.3335 C   0  0  0  0  0  0  0  0  0  0  0  0
   -5.1207    0.9539   -1.1424 O   0  0  0  0  0  0  0  0  0  0  0  0
    0.9706    0.5756    0.5823 C   0  0  0  0  0  0  0  0  0  0  0  0
    5.0473   -0.1455   -0.3409 C   0  0  0  0  0  0  0  0  0  0  0  0
    6.4306   -0.3908   -0.6545 C   0  0  0  0  0  0  0  0  0  0  0  0
   -2.9441   -1.5239    2.7797 O   0  0  0  0  0  0  0  0  0  0  0  0
  1  6  1  0
  1 17  3  0
  2  9  1  0
  2 12  1  0
  2 20  2  0
  3  4  2  0
  3  7  1  0
  4 18  1  0
  5 13  1  0
  5 14  1  0
 12  6  1  1
  7 11  2  0
  7 17  1  0
  8 19  3  0
 10 14  1  0
 11 15  1  0
 12 13  1  0
 14 16  2  0
 15 18  2  0
 18 19  1  0
M  END
