
     RDKit          3D

 17 21  0  0  0  0  0  0  0  0999 V2000
   -9.3934  -59.5156   18.4825 O   0  0  0  0  0  0  0  0  0  0  0  0
   -6.7916  -63.4230   17.4234 C   0  0  1  0  0  0  0  0  0  0  0  0
  -10.3461  -62.9956   16.9430 C   0  0  2  0  0  0  0  0  0  0  0  0
   -8.1387  -63.8048   16.9059 C   0  0  1  0  0  0  0  0  0  0  0  0
   -9.2740  -60.8800   18.8807 C   0  0  2  0  0  0  0  0  0  0  0  0
  -10.9841  -65.2108   17.7986 O   0  0  0  0  0  0  0  0  0  0  0  0
   -7.1116  -63.1782   15.9853 C   0  0  1  0  0  0  0  0  0  0  0  0
  -11.3454  -62.2057   17.7908 C   0  0  0  0  0  0  0  0  0  0  0  0
   -8.9235  -64.9827   16.4150 C   0  0  0  0  0  0  0  0  0  0  0  0
   -6.9826  -62.2319   18.3898 C   0  0  0  0  0  0  0  0  0  0  0  0
  -10.4332  -64.5251   16.6776 C   0  0  2  0  0  0  0  0  0  0  0  0
   -8.3664  -61.6508   17.8971 C   0  0  2  0  0  0  0  0  0  0  0  0
   -7.3300  -61.7672   15.5258 C   0  0  0  0  0  0  0  0  0  0  0  0
   -8.1035  -60.9152   16.5526 C   0  0  0  0  0  0  0  0  0  0  0  0
   -9.0543  -62.9784   17.6874 C   0  0  0  0  0  0  0  0  0  0  0  0
  -10.7179  -61.4844   19.0297 C   0  0  0  0  0  0  0  0  0  0  0  0
   -5.8746  -64.4480   17.7669 O   0  0  0  0  0  0  0  0  0  0  0  0
  5  1  1  6
  2  4  1  0
  2  7  1  0
  2 10  1  0
  2 17  1  6
  3  8  1  1
  3 11  1  0
  3 15  1  0
  4  7  1  0
  4  9  1  6
  4 15  1  0
  5 12  1  0
  5 16  1  0
 11  6  1  1
  7 13  1  1
  8 16  1  0
  9 11  1  0
 12 10  1  6
 12 14  1  0
 12 15  1  0
 13 14  1  0
M  END
$$$$
