
     RDKit          3D

 22 25  0  0  0  0  0  0  0  0999 V2000
   -4.3963    1.2196   -0.0590 C   0  0  0  0  0  0  0  0  0  0  0  0
   -2.0248   -0.3273   -0.1703 C   0  0  0  0  0  0  0  0  0  0  0  0
    2.7724   -0.9502    0.6682 O   0  0  0  0  0  0  0  0  0  0  0  0
   -0.8581   -1.0688   -0.2459 N   0  0  0  0  0  0  0  0  0  0  0  0
    1.3768   -2.7093   -0.0184 C   0  0  0  0  0  0  0  0  0  0  0  0
    0.3919   -0.4648   -0.0907 C   0  0  0  0  0  0  0  0  0  0  0  0
   -4.4684   -0.1628    0.0409 C   0  0  0  0  0  0  0  0  0  0  0  0
   -3.3048   -0.9304   -0.0001 C   0  0  0  0  0  0  0  0  0  0  0  0
    3.0299    1.1486   -0.3974 C   0  0  2  0  0  0  0  0  0  0  0  0
    1.5161   -1.3327    0.1734 C   0  0  0  0  0  0  0  0  0  0  0  0
    0.4812    0.9711   -0.2273 C   0  0  0  0  0  0  0  0  0  0  0  0
    4.6231    0.2920    1.1712 O   0  0  0  0  0  0  0  0  0  0  0  0
   -0.9330   -2.4182   -0.5101 C   0  0  0  0  0  0  0  0  0  0  0  0
   -0.7258    1.7155   -0.2700 C   0  0  0  0  0  0  0  0  0  0  0  0
    3.2523    0.3587    0.8819 C   0  0  2  0  0  0  0  0  0  0  0  0
   -1.9662    1.0813   -0.2010 C   0  0  0  0  0  0  0  0  0  0  0  0
    0.1705   -3.2418   -0.4125 C   0  0  0  0  0  0  0  0  0  0  0  0
    3.9547    2.2050   -0.5131 O   0  0  0  0  0  0  0  0  0  0  0  0
    2.3600   -3.4787    0.1602 O   0  0  0  0  0  0  0  0  0  0  0  0
   -3.1572    1.8419   -0.1688 C   0  0  0  0  0  0  0  0  0  0  0  0
    1.6337    1.6790   -0.3945 C   0  0  0  0  0  0  0  0  0  0  0  0
   -0.6981    2.9784   -0.3569 O   0  0  0  0  0  0  0  0  0  0  0  0
  1  7  2  0
  1 20  1  0
  2  4  1  0
  2  8  2  0
  2 16  1  0
  3 10  1  0
  3 15  1  0
  4  6  1  0
  4 13  1  0
  5 10  1  0
  5 17  1  0
  5 19  2  0
  6 10  2  0
  6 11  1  0
  7  8  1  0
  9 15  1  0
  9 18  1  1
  9 21  1  0
 11 14  1  0
 11 21  2  0
 15 12  1  6
 13 17  2  0
 14 16  1  0
 14 22  2  0
 16 20  2  0
M  END
