
     RDKit          3D

 31 32  0  0  0  0  0  0  0  0999 V2000
   -3.5000    0.1268   -0.6591 C   0  0  0  0  0  0  0  0  0  0  0  0
    1.4928   -0.3681   -0.1539 O   0  0  0  0  0  0  0  0  0  0  0  0
   -0.2314   -0.0623    0.3180 P   0  0  0  0  0  0  0  0  0  0  0  0
    3.7595   -1.8122   -0.7302 C   0  0  0  0  0  0  0  0  0  0  0  0
    1.4013   -0.5256   -0.1140 N   0  0  0  0  0  0  0  0  0  0  0  0
    0.7680    0.3278   -0.1102 C   0  0  0  0  0  0  0  0  0  0  0  0
    4.9046    0.3679    0.4800 N   0  0  0  0  0  0  0  0  0  0  0  0
    1.5595   -0.7613   -0.5276 C   0  0  0  0  0  0  0  0  0  0  0  0
   -5.1492    0.0795    1.6046 C   0  0  0  0  0  0  0  0  0  0  0  0
   -3.8064    0.4485    1.7273 C   0  0  0  0  0  0  0  0  0  0  0  0
   -1.2528   -1.4017    0.1599 O   0  0  0  0  0  0  0  0  0  0  0  0
   -0.7620    1.1746   -0.7083 O   0  0  0  0  0  0  0  0  0  0  0  0
   -4.8527   -0.2276   -0.7788 C   0  0  0  0  0  0  0  0  0  0  0  0
   -0.0614   -0.0778    0.4490 P   0  0  0  0  0  0  0  0  0  0  0  0
   -0.3059    1.5888    0.6067 O   0  0  0  0  0  0  0  0  0  0  0  0
   -1.5402    0.9228    0.7133 C   0  0  0  0  0  0  0  0  0  0  0  0
   -2.9721    0.4638    0.5982 C   0  0  0  0  0  0  0  0  0  0  0  0
    1.3968    1.4268    0.5093 C   0  0  0  0  0  0  0  0  0  0  0  0
    3.5592    0.3590    0.2900 C   0  0  0  0  0  0  0  0  0  0  0  0
   -2.6110    0.1998   -1.8630 C   0  0  0  0  0  0  0  0  0  0  0  0
   -1.2198   -0.3330   -1.5149 C   0  0  0  0  0  0  0  0  0  0  0  0
   -0.6651    0.3173   -0.3117 N   0  0  0  0  0  0  0  0  0  0  0  0
   -0.2549    0.4225    1.7500 O   0  0  0  0  0  0  0  0  0  0  0  0
    5.1003   -1.7568   -0.5182 N   0  0  0  0  0  0  0  0  0  0  0  0
    2.7808    1.4411    0.7066 C   0  0  0  0  0  0  0  0  0  0  0  0
    2.9471   -0.7466   -0.3292 C   0  0  0  0  0  0  0  0  0  0  0  0
    5.6747   -0.6792    0.0808 C   0  0  0  0  0  0  0  0  0  0  0  0
   -1.2128   -0.7190   -0.6127 O   0  0  0  0  0  0  0  0  0  0  0  0
   -0.2041   -0.7340    1.8031 O   0  0  0  0  0  0  0  0  0  0  0  0
   -5.6716   -0.2579    0.3534 C   0  0  0  0  0  0  0  0  0  0  0  0
    7.0844   -0.6477    0.2906 N   0  0  0  0  0  0  0  0  0  0  0  0
  1 13  2  0
  1 17  1  0
  1 20  1  0
  2 14  1  0
  3  5  1  0
  3 11  1  0
  3 12  1  0
  3 23  2  0
  4 24  1  0
  4 26  2  0
  6  8  2  0
  6 18  1  0
  6 22  1  0
  7 19  2  0
  7 27  1  0
  8 26  1  0
  9 10  1  0
  9 30  2  0
 10 17  2  0
 13 30  1  0
 14 15  1  0
 14 28  1  0
 14 29  2  0
 16 17  1  0
 16 22  1  0
 18 25  2  0
 19 25  1  0
 19 26  1  0
 20 21  1  0
 21 22  1  0
 24 27  2  0
 27 31  1  0
M  END
