
     RDKit          3D

 37 40  0  0  0  0  0  0  0  0999 V2000
   -4.8918   -2.9689   -0.9323 O   0  0  0  0  0  0  0  0  0  0  0  0
   -5.3631   -0.8682    0.5357 O   0  0  0  0  0  0  0  0  0  0  0  0
    5.3008   -1.3806    2.5751 C   0  0  0  0  0  0  0  0  0  0  0  0
   -3.8374    2.2078    0.6483 C   0  0  0  0  0  0  0  0  0  0  0  0
    5.6990   -2.9545    0.5730 C   0  0  0  0  0  0  0  0  0  0  0  0
    6.8550   -2.7785   -0.3031 N   0  0  0  0  0  0  0  0  0  0  0  0
   -1.4075    2.9959   -2.1991 C   0  0  1  0  0  0  0  0  0  0  0  0
   -4.0661    1.4632    1.8149 O   0  0  0  0  0  0  0  0  0  0  0  0
   -3.8617   -2.6825    2.3220 O   0  0  0  0  0  0  0  0  0  0  0  0
    0.4416    1.8857   -0.7716 C   0  0  2  0  0  0  0  0  0  0  0  0
   -1.5479    4.4816   -0.3159 O   0  0  0  0  0  0  0  0  0  0  0  0
   -2.4565   -4.2443    0.7524 O   0  0  0  0  0  0  0  0  0  0  0  0
    1.9396    0.3223    0.3239 C   0  0  1  0  0  0  0  0  0  0  0  0
   -4.4132   -1.4009   -0.5120 P   0  0  0  0  0  0  0  0  0  0  0  0
   -0.3591    0.5916   -0.5553 C   0  0  1  0  0  0  0  0  0  0  0  0
    3.9144   -2.4195   -1.1714 N   0  0  0  0  0  0  0  0  0  0  0  0
    0.3754   -1.5654    0.2648 O   0  0  0  0  0  0  0  0  0  0  0  0
    0.0852    2.6348   -2.0606 C   0  0  0  0  0  0  0  0  0  0  0  0
   -2.7021   -1.4403    0.1607 C   0  0  0  0  0  0  0  0  0  0  0  0
   -2.3291   -0.1966    0.7375 O   0  0  0  0  0  0  0  0  0  0  0  0
   -1.5929    2.5795    1.3953 O   0  0  0  0  0  0  0  0  0  0  0  0
   -2.6136   -2.7171    1.4669 P   0  0  0  0  0  0  0  0  0  0  0  0
    0.4796   -0.1822    0.4829 C   0  0  1  0  0  0  0  0  0  0  0  0
   -4.5147   -0.4261   -1.8921 O   0  0  0  0  0  0  0  0  0  0  0  0
    2.8872   -0.7421   -0.0443 N   0  0  0  0  0  0  0  0  0  0  0  0
    6.0104   -2.4645    1.9319 N   0  0  0  0  0  0  0  0  0  0  0  0
    2.9164   -1.4987   -1.1718 C   0  0  0  0  0  0  0  0  0  0  0  0
   -2.3297    2.2071    0.2474 C   0  0  2  0  0  0  0  0  0  0  0  0
    4.5242   -2.2159    0.0124 C   0  0  0  0  0  0  0  0  0  0  0  0
    3.9071   -1.2144    0.6853 C   0  0  0  0  0  0  0  0  0  0  0  0
   -2.0773    2.0072   -2.9390 O   0  0  0  0  0  0  0  0  0  0  0  0
    4.3019   -0.7875    1.9873 N   0  0  0  0  0  0  0  0  0  0  0  0
   -2.1504    3.3367   -0.8699 C   0  0  2  0  0  0  0  0  0  0  0  0
   -1.8947    0.7629   -0.2242 C   0  0  1  0  0  0  0  0  0  0  0  0
   -1.2738   -2.4452    2.4635 O   0  0  0  0  0  0  0  0  0  0  0  0
    1.8999    1.4271   -0.7445 C   0  0  2  0  0  0  0  0  0  0  0  0
    2.7919    2.4789   -0.4598 O   0  0  0  0  0  0  0  0  0  0  0  0
  1 14  1  0
  2 14  2  0
  3 26  1  0
  3 32  2  0
  4  8  1  0
  4 28  1  0
  5  6  1  0
  5 26  1  0
  5 29  1  0
  7 18  1  0
  7 31  1  1
  7 33  1  0
  9 22  2  0
 10 15  1  0
 10 18  1  6
 10 36  1  0
 33 11  1  1
 12 22  1  0
 13 23  1  0
 13 25  1  6
 13 36  1  0
 14 19  1  0
 14 24  1  0
 15 23  1  1
 15 34  1  0
 16 27  2  0
 16 29  1  0
 23 17  1  6
 19 20  1  0
 19 22  1  0
 34 20  1  1
 28 21  1  1
 22 35  1  0
 25 27  1  0
 25 30  1  0
 28 33  1  0
 28 34  1  0
 29 30  2  0
 30 32  1  0
 36 37  1  1
M  END
