
     RDKit          3D

 30 31  0  0  0  0  0  0  0  0999 V2000
  -19.7991   -2.4228  -30.9086 C   0  0  2  0  0  0  0  0  0  0  0  0
  -23.9720    0.1935  -32.4772 C   0  0  0  0  0  0  0  0  0  0  0  0
  -22.6860    0.8024  -32.3512 N   0  0  0  0  0  0  0  0  0  0  0  0
  -26.2089    0.2129  -33.4944 C   0  0  0  0  0  0  0  0  0  0  0  0
  -20.9765    1.8081  -30.9302 C   0  0  0  0  0  0  0  0  0  0  0  0
  -23.4775   -1.6389  -30.7512 C   0  0  0  0  0  0  0  0  0  0  0  0
  -19.5430    5.2790  -30.4078 O   0  0  0  0  0  0  0  0  0  0  0  0
  -27.4398    2.9718  -33.9240 C   0  0  0  0  0  0  0  0  0  0  0  0
  -23.9287   -2.1944  -29.7555 O   0  0  0  0  0  0  0  0  0  0  0  0
  -18.6779   -2.7799  -29.9144 C   0  0  0  0  0  0  0  0  0  0  0  0
  -26.7918    3.8283  -34.8141 C   0  0  0  0  0  0  0  0  0  0  0  0
  -28.9302    4.5527  -35.6737 C   0  0  0  0  0  0  0  0  0  0  0  0
  -23.2567    2.8792  -31.0875 C   0  0  0  0  0  0  0  0  0  0  0  0
  -27.5371    4.6187  -35.6889 C   0  0  0  0  0  0  0  0  0  0  0  0
  -18.3099   -1.6397  -28.9745 C   0  0  0  0  0  0  0  0  0  0  0  0
  -24.9085    0.7167  -33.4004 C   0  0  0  0  0  0  0  0  0  0  0  0
  -20.9115    4.9899  -30.6606 C   0  0  0  0  0  0  0  0  0  0  0  0
  -22.1468   -1.6675  -31.1054 N   0  0  0  0  0  0  0  0  0  0  0  0
  -22.9467    3.7137  -29.8440 C   0  0  0  0  0  0  0  0  0  0  0  0
  -21.1378   -2.1710  -30.1984 C   0  0  0  0  0  0  0  0  0  0  0  0
  -28.8329    2.9058  -33.9088 C   0  0  0  0  0  0  0  0  0  0  0  0
  -29.5782    3.6963  -34.7837 C   0  0  0  0  0  0  0  0  0  0  0  0
  -24.3847   -0.8973  -31.6775 C   0  0  0  0  0  0  0  0  0  0  0  0
  -25.7015   -1.3856  -31.7681 C   0  0  0  0  0  0  0  0  0  0  0  0
  -19.9402   -3.5486  -31.9408 C   0  0  0  0  0  0  0  0  0  0  0  0
  -24.4727    2.0226  -34.4538 Cl  0  0  0  0  0  0  0  0  0  0  0  0
  -20.6708    2.6379  -29.6849 C   0  0  0  0  0  0  0  0  0  0  0  0
  -21.4455    3.9658  -29.6474 C   0  0  1  0  0  0  0  0  0  0  0  0
  -22.4835    1.5516  -31.0878 C   0  0  1  0  0  0  0  0  0  0  0  0
  -26.6096   -0.8315  -32.6683 C   0  0  0  0  0  0  0  0  0  0  0  0
  1 10  1  0
  1 20  1  0
  1 25  1  6
  2  3  1  0
  2 16  2  0
  2 23  1  0
 29  3  1  6
  4 16  1  0
  4 30  2  0
  5 27  1  0
  5 29  1  0
  6  9  2  0
  6 18  1  0
  6 23  1  0
  7 17  1  0
  8 11  2  0
  8 21  1  0
 10 15  1  0
 11 14  1  0
 12 14  2  0
 12 22  1  0
 13 19  1  0
 13 29  1  0
 16 26  1  0
 28 17  1  6
 18 20  1  0
 19 28  1  0
 21 22  2  0
 23 24  2  0
 24 30  1  0
 27 28  1  0
M  END
$$$$
