
     RDKit          3D

  8  8  0  0  0  0  0  0  0  0999 V2000
  -23.1750   25.2834   -3.0990 C   0  0  0  0  0  0  0  0  0  0  0  0
  -21.2122   25.2436   -4.5101 C   0  0  0  0  0  0  0  0  0  0  0  0
  -23.9617   24.9586   -4.2050 C   0  0  0  0  0  0  0  0  0  0  0  0
  -21.0331   25.7410   -2.1809 O   0  0  0  0  0  0  0  0  0  0  0  0
  -23.3703   24.7775   -5.4600 C   0  0  0  0  0  0  0  0  0  0  0  0
  -21.8046   25.4232   -3.2619 C   0  0  0  0  0  0  0  0  0  0  0  0
  -21.9887   24.9199   -5.6169 C   0  0  0  0  0  0  0  0  0  0  0  0
  -19.8559   25.3968   -4.5984 O   0  0  0  0  0  0  0  0  0  0  0  0
  1  3  1  0
  1  6  2  0
  2  6  1  0
  2  7  2  0
  2  8  1  0
  3  5  2  0
  4  6  1  0
  5  7  1  0
M  END
$$$$
