
     RDKit          3D

 19 20  0  0  0  0  0  0  0  0999 V2000
  -20.1074   25.3383   -4.6910 C   0  0  0  0  0  0  0  0  0  0  0  0
  -18.7177   25.5300   -4.7283 N   0  0  0  0  0  0  0  0  0  0  0  0
  -15.4958   26.0474   -3.1104 N   0  0  0  0  0  0  0  0  0  0  0  0
  -20.7715   25.2232   -5.9129 C   0  0  0  0  0  0  0  0  0  0  0  0
  -22.1578   25.0307   -5.9532 C   0  0  0  0  0  0  0  0  0  0  0  0
  -24.4011   24.7870   -2.4874 C   0  0  0  0  0  0  0  0  0  0  0  0
  -16.3926   25.8609   -4.1363 C   0  0  0  0  0  0  0  0  0  0  0  0
  -22.2498   25.0639   -3.5605 C   0  0  0  0  0  0  0  0  0  0  0  0
  -24.9612   24.6855   -3.7399 C   0  0  0  0  0  0  0  0  0  0  0  0
  -16.1360   25.8325   -5.3323 O   0  0  0  0  0  0  0  0  0  0  0  0
  -22.9156   24.9481   -4.7959 C   0  0  0  0  0  0  0  0  0  0  0  0
  -24.2462   24.7623   -4.8883 N   0  0  0  0  0  0  0  0  0  0  0  0
  -25.1607   24.7031   -1.3881 F   0  0  0  0  0  0  0  0  0  0  0  0
  -17.8508   25.6654   -3.6647 C   0  0  0  0  0  0  0  0  0  0  0  0
  -22.4614   25.0801   -1.1937 F   0  0  0  0  0  0  0  0  0  0  0  0
  -14.0783   26.1281   -3.3319 C   0  0  0  0  0  0  0  0  0  0  0  0
  -18.0868   25.6465   -2.4654 O   0  0  0  0  0  0  0  0  0  0  0  0
  -20.8520   25.2581   -3.5153 C   0  0  0  0  0  0  0  0  0  0  0  0
  -23.0346   24.9776   -2.4038 C   0  0  0  0  0  0  0  0  0  0  0  0
  1  2  1  0
  1  4  1  0
  1 18  2  0
  2 14  1  0
  3  7  1  0
  3 16  1  0
  4  5  2  0
  5 11  1  0
  6  9  2  0
  6 13  1  0
  6 19  1  0
  7 10  2  0
  7 14  1  0
  8 11  1  0
  8 18  1  0
  8 19  2  0
  9 12  1  0
 11 12  2  0
 14 17  2  0
 15 19  1  0
M  END
$$$$
