
     RDKit          3D

 19 20  0  0  0  0  0  0  0  0999 V2000
   62.6155  -44.8056  117.0331 O   0  0  0  0  0  0  0  0  0  0  0  0
   60.4893  -44.9215  115.0596 C   0  0  0  0  0  0  0  0  0  0  0  0
   59.2998  -46.8569  114.1510 C   0  0  0  0  0  0  0  0  0  0  0  0
   63.1612  -44.9095  114.4201 O   0  0  0  0  0  0  0  0  0  0  0  0
   60.5094  -46.3345  114.6616 N   0  0  0  0  0  0  0  0  0  0  0  0
   59.6375  -48.2330  113.5669 C   0  0  0  0  0  0  0  0  0  0  0  0
   60.7895  -47.0335  115.8424 C   0  0  0  0  0  0  0  0  0  0  0  0
   60.9872  -44.0331  112.8272 O   0  0  0  0  0  0  0  0  0  0  0  0
   57.3433  -46.5197  111.3629 O   0  0  0  0  0  0  0  0  0  0  0  0
   58.7160  -44.4308  113.5709 C   0  0  0  0  0  0  0  0  0  0  0  0
   57.5109  -46.2699  112.5614 C   0  0  0  0  0  0  0  0  0  0  0  0
   58.8659  -45.8730  113.0524 C   0  0  0  0  0  0  0  0  0  0  0  0
   60.1086  -43.9883  113.9510 C   0  0  0  0  0  0  0  0  0  0  0  0
   56.5310  -46.3315  113.3172 O   0  0  0  0  0  0  0  0  0  0  0  0
   62.1777  -44.3828  115.4920 P   0  0  0  0  0  0  0  0  0  0  0  0
   61.0350  -50.1632  114.4096 O   0  0  0  0  0  0  0  0  0  0  0  0
   60.7730  -48.4590  115.8009 N   0  0  0  0  0  0  0  0  0  0  0  0
   60.5065  -49.0271  114.5837 C   0  0  0  0  0  0  0  0  0  0  0  0
   62.0373  -42.7369  115.4536 O   0  0  0  0  0  0  0  0  0  0  0  0
  1 15  2  0
  2  5  1  0
  2 13  1  0
  2 15  1  0
  3  5  1  0
  3  6  1  0
  3 12  1  0
  4 15  1  0
  5  7  1  0
  6 18  1  0
  7 17  2  0
  8 13  1  0
  9 11  1  0
 10 12  1  0
 10 13  1  0
 11 12  1  0
 11 14  2  0
 15 19  1  0
 16 18  2  0
 17 18  1  0
M  END
$$$$
