
     RDKit          3D

 12 11  0  0  0  0  0  0  0  0999 V2000
  -12.0583  -10.2539   24.5967 C   0  0  0  0  0  0  0  0  0  0  0  0
  -13.6227   -6.7998   26.1185 C   0  0  0  0  0  0  0  0  0  0  0  0
  -11.0979  -10.8116   23.7307 O   0  0  0  0  0  0  0  0  0  0  0  0
  -14.3251   -8.9186   22.9154 O   0  0  0  0  0  0  0  0  0  0  0  0
  -10.8439  -12.1766   23.6126 C   0  0  0  0  0  0  0  0  0  0  0  0
  -13.0855   -7.9614   21.1174 C   0  0  0  0  0  0  0  0  0  0  0  0
  -12.2777   -8.4888   23.3264 N   0  0  0  0  0  0  0  0  0  0  0  0
  -12.3839   -7.3108   25.4114 C   0  0  0  0  0  0  0  0  0  0  0  0
  -12.9691  -10.9745   25.2385 O   0  0  0  0  0  0  0  0  0  0  0  0
  -12.4903   -8.8213   24.7748 C   0  0  0  0  0  0  0  0  0  0  0  0
  -13.2800   -8.4944   22.5048 C   0  0  0  0  0  0  0  0  0  0  0  0
  -11.6123   -7.1958   25.0840 O   0  0  0  0  0  0  0  0  0  0  0  0
  1  3  1  0
  1  9  2  0
  1 10  1  0
  2  8  1  0
  3  5  1  0
  4 11  2  0
  6 11  1  0
  7 10  1  0
  7 11  1  0
  8 10  1  0
  8 12  1  0
M  END
$$$$
