
     RDKit          3D

 10  9  0  0  0  0  0  0  0  0999 V2000
  -14.3920   -7.9366   23.5623 O   0  0  0  0  0  0  0  0  0  0  0  0
  -12.1138   -8.6312   24.1007 C   0  0  0  0  0  0  0  0  0  0  0  0
  -13.3013   -8.3947   23.1960 C   0  0  0  0  0  0  0  0  0  0  0  0
  -12.0701   -6.9499   25.8252 C   0  0  0  0  0  0  0  0  0  0  0  0
  -12.8937  -10.8543   24.0441 O   0  0  0  0  0  0  0  0  0  0  0  0
  -12.3796   -8.3215   25.5276 N   0  0  0  0  0  0  0  0  0  0  0  0
  -11.9483  -10.1054   23.9676 C   0  0  0  0  0  0  0  0  0  0  0  0
  -13.0555   -8.6831   21.9368 N   0  0  0  0  0  0  0  0  0  0  0  0
  -14.1643   -8.6290   20.9931 C   0  0  0  0  0  0  0  0  0  0  0  0
  -10.7649  -10.5849   23.7285 O   0  0  0  0  0  0  0  0  0  0  0  0
  1  3  2  0
  2  3  1  0
  2  6  1  0
  2  7  1  0
  3  8  1  0
  4  6  1  0
  5  7  2  0
  7 10  1  0
  8  9  1  0
M  END
$$$$
