
     RDKit          3D

 12 13  0  0  0  0  0  0  0  0999 V2000
  -21.5936   25.0004   -2.4138 C   0  0  0  0  0  0  0  0  0  0  0  0
  -20.3218   25.1316   -4.4914 C   0  0  0  0  0  0  0  0  0  0  0  0
  -18.8597   24.9047   -4.1521 C   0  0  0  0  0  0  0  0  0  0  0  0
  -21.4961   25.0952   -3.7047 N   0  0  0  0  0  0  0  0  0  0  0  0
  -23.9258   25.0906   -2.6045 C   0  0  0  0  0  0  0  0  0  0  0  0
  -23.8280   25.1836   -3.9748 C   0  0  0  0  0  0  0  0  0  0  0  0
  -20.7063   25.3061   -5.6884 C   0  0  0  0  0  0  0  0  0  0  0  0
  -18.5038   24.5522   -3.0627 O   0  0  0  0  0  0  0  0  0  0  0  0
  -22.7936   25.0112   -1.8311 C   0  0  0  0  0  0  0  0  0  0  0  0
  -22.2289   25.3486   -5.7729 C   0  0  0  0  0  0  0  0  0  0  0  0
  -22.6112   25.2149   -4.5604 C   0  0  0  0  0  0  0  0  0  0  0  0
  -18.0538   25.0388   -5.0788 O   0  0  0  0  0  0  0  0  0  0  0  0
  1  4  1  0
  1  9  2  0
  2  3  1  0
  2  4  1  0
  2  7  2  0
  3  8  2  0
  3 12  1  0
  4 11  1  0
  5  6  2  0
  5  9  1  0
  6 11  1  0
  7 10  1  0
 10 11  2  0
M  END
