
     RDKit          3D

 25 27  0  0  0  0  0  0  0  0999 V2000
  -15.0354   17.6325   -9.4275 N   0  0  0  0  0  0  0  0  0  0  0  0
  -17.6611   19.5280  -12.4263 N   0  0  0  0  0  0  0  0  0  0  0  0
  -13.9909   18.2457   -4.2455 C   0  0  0  0  0  0  0  0  0  0  0  0
  -15.2379   20.5216   -7.2787 N   0  0  0  0  0  0  0  0  0  0  0  0
  -17.8760   21.9578  -15.2092 C   0  0  0  0  0  0  0  0  0  0  0  0
  -15.3070   22.2976  -17.8156 N   0  0  0  0  0  0  0  0  0  0  0  0
  -14.1737   17.1334   -6.4791 C   0  0  0  0  0  0  0  0  0  0  0  0
  -17.3090   20.2137  -13.5934 C   0  0  0  0  0  0  0  0  0  0  0  0
  -15.0466   18.5786   -8.3483 N   0  0  0  0  0  0  0  0  0  0  0  0
  -13.8659   17.1622   -5.0255 C   0  0  0  0  0  0  0  0  0  0  0  0
  -17.4399   23.0246  -17.7948 O   0  0  0  0  0  0  0  0  0  0  0  0
  -13.9918   16.0932   -7.1063 O   0  0  0  0  0  0  0  0  0  0  0  0
  -18.1295   21.2691  -14.0178 C   0  0  0  0  0  0  0  0  0  0  0  0
  -16.0024   20.5058  -15.6368 C   0  0  0  0  0  0  0  0  0  0  0  0
  -14.8254   19.5445   -6.4160 C   0  0  0  0  0  0  0  0  0  0  0  0
  -17.0846   16.4288   -8.5963 C   0  0  0  0  0  0  0  0  0  0  0  0
  -14.5207   19.8273   -4.7231 S   0  0  0  0  0  0  0  0  0  0  0  0
  -16.3655   17.0920   -9.7763 C   0  0  1  0  0  0  0  0  0  0  0  0
  -17.2929   18.0969  -10.4843 C   0  0  0  0  0  0  0  0  0  0  0  0
  -16.2668   19.8217  -14.4417 C   0  0  0  0  0  0  0  0  0  0  0  0
  -15.3191   19.9183   -8.4459 C   0  0  0  0  0  0  0  0  0  0  0  0
  -16.6906   18.6475  -11.7806 C   0  0  0  0  0  0  0  0  0  0  0  0
  -14.6578   18.3420   -7.0584 C   0  0  0  0  0  0  0  0  0  0  0  0
  -16.7983   21.5896  -16.0167 C   0  0  0  0  0  0  0  0  0  0  0  0
  -16.5624   22.3476  -17.2744 C   0  0  0  0  0  0  0  0  0  0  0  0
  1  9  1  0
  1 18  1  0
  2  8  1  0
  2 22  1  0
  3 10  2  0
  3 17  1  0
  4 15  1  0
  4 21  2  0
  5 13  2  0
  5 24  1  0
  6 25  1  0
  7 10  1  0
  7 12  2  0
  7 23  1  0
  8 13  1  0
  8 20  2  0
  9 21  1  0
  9 23  1  0
 11 25  2  0
 14 20  1  0
 14 24  2  0
 15 17  1  0
 15 23  2  0
 18 16  1  1
 18 19  1  0
 19 22  1  0
 24 25  1  0
M  END
$$$$
