
     RDKit          3D

 28 31  0  0  0  0  0  0  0  0999 V2000
    6.9489    3.0474    4.5985 O   0  0  0  0  0  0  0  0  0  0  0  0
    9.8669   -1.6646    1.1042 C   0  0  0  0  0  0  0  0  0  0  0  0
    5.1273   -1.6547    1.6885 N   0  0  0  0  0  0  0  0  0  0  0  0
    9.1172    2.2239    6.1188 C   0  0  0  0  0  0  0  0  0  0  0  0
    8.0068    2.0049    4.7525 P   0  0  1  0  0  0  0  0  0  0  0  0
    2.2718    1.6257    1.1408 C   0  0  0  0  0  0  0  0  0  0  0  0
    2.4358   -2.1437    1.5445 C   0  0  0  0  0  0  0  0  0  0  0  0
    6.9213   -1.4413    3.5809 C   0  0  1  0  0  0  0  0  0  0  0  0
    1.9846    0.2619    1.0159 C   0  0  0  0  0  0  0  0  0  0  0  0
   10.9620   -1.7351    1.9597 C   0  0  0  0  0  0  0  0  0  0  0  0
    0.3099    2.2526   -0.1190 N   0  0  0  0  0  0  0  0  0  0  0  0
    4.2846   -0.4771    1.4922 C   0  0  0  0  0  0  0  0  0  0  0  0
    4.4617   -2.1999    2.9837 C   0  0  1  0  0  0  0  0  0  0  0  0
    3.2968   -3.0095    2.5121 C   0  0  0  0  0  0  0  0  0  0  0  0
    7.4388    0.5045    4.9269 O   0  0  0  0  0  0  0  0  0  0  0  0
   10.7651   -1.6802    3.3357 C   0  0  0  0  0  0  0  0  0  0  0  0
    0.8124   -0.0559    0.3185 C   0  0  0  0  0  0  0  0  0  0  0  0
    5.9248   -2.2116    2.7376 C   0  0  1  0  0  0  0  0  0  0  0  0
    9.4742   -1.5616    3.8501 C   0  0  0  0  0  0  0  0  0  0  0  0
    0.0167    0.9506   -0.2227 C   0  0  0  0  0  0  0  0  0  0  0  0
   -1.1373    0.6328   -0.9387 N   0  0  0  0  0  0  0  0  0  0  0  0
    9.3922   -1.4267    5.2093 O   0  0  0  0  0  0  0  0  0  0  0  0
    1.4272    2.5639    0.5650 C   0  0  0  0  0  0  0  0  0  0  0  0
    2.8128   -0.7040    1.5978 N   0  0  0  0  0  0  0  0  0  0  0  0
    8.3448   -1.5365    3.0123 C   0  0  0  0  0  0  0  0  0  0  0  0
    8.9594    1.8495    3.4697 O   0  0  0  0  0  0  0  0  0  0  0  0
    6.5851    0.0249    3.8827 C   0  0  0  0  0  0  0  0  0  0  0  0
    8.5731   -1.5622    1.6243 C   0  0  0  0  0  0  0  0  0  0  0  0
  1  5  2  0
  2 10  2  0
  2 28  1  0
  3 12  1  0
  3 13  1  0
 18  3  1  6
  5  4  1  1
  5 15  1  0
  5 26  1  0
  6  9  1  0
  6 23  2  0
  7 14  1  0
  7 24  1  0
  8 18  1  0
  8 25  1  0
  8 27  1  6
  9 17  2  0
  9 24  1  0
 10 16  1  0
 11 20  2  0
 11 23  1  0
 12 24  1  0
 13 14  1  6
 13 18  1  0
 15 27  1  0
 16 19  2  0
 17 20  1  0
 19 22  1  0
 19 25  1  0
 20 21  1  0
 25 28  2  0
M  END
$$$$
