
     RDKit          3D

 25 27  0  0  0  0  0  0  0  0999 V2000
   29.7521   26.9336   31.1026 C   0  0  0  0  0  0  0  0  0  0  0  0
   31.1852   27.6686   34.3804 N   0  0  0  0  0  0  0  0  0  0  0  0
   28.8351   28.6723   36.6863 N   0  0  0  0  0  0  0  0  0  0  0  0
   33.6298   28.3938   41.4477 P   0  0  0  0  0  0  0  0  0  0  0  0
   31.2762   27.2838   32.9766 C   0  0  0  0  0  0  0  0  0  0  0  0
   32.3085   26.9363   32.1483 C   0  0  0  0  0  0  0  0  0  0  0  0
   32.2336   27.8680   35.3022 C   0  0  0  0  0  0  0  0  0  0  0  0
   33.9635   27.2868   36.2197 C   0  0  0  0  0  0  0  0  0  0  0  0
   34.1242   27.6206   37.4953 C   0  0  0  0  0  0  0  0  0  0  0  0
   32.0628   28.3925   36.5616 N   0  0  0  0  0  0  0  0  0  0  0  0
   32.6142   28.9375   38.9384 S   0  0  0  0  0  0  0  0  0  0  0  0
   31.0865   29.0801   39.0672 O   0  0  0  0  0  0  0  0  0  0  0  0
   27.9943   27.7615   33.5001 O   0  0  0  0  0  0  0  0  0  0  0  0
   32.9879   28.2468   37.5193 C   0  0  0  0  0  0  0  0  0  0  0  0
   29.1945   27.6366   33.4472 C   0  0  0  0  0  0  0  0  0  0  0  0
   30.8544   26.6046   30.3615 C   0  0  0  0  0  0  0  0  0  0  0  0
   33.1776   27.3634   35.1862 N   0  0  0  0  0  0  0  0  0  0  0  0
   35.0521   28.8192   41.1983 O   0  0  0  0  0  0  0  0  0  0  0  0
   32.7760   29.5751   41.8172 O   0  0  0  0  0  0  0  0  0  0  0  0
   29.3610   28.3221   35.7221 C   0  0  0  0  0  0  0  0  0  0  0  0
   29.9354   27.9146   34.5811 C   0  0  0  0  0  0  0  0  0  0  0  0
   29.9986   27.2672   32.4179 C   0  0  0  0  0  0  0  0  0  0  0  0
   33.0942   27.8254   40.0738 O   0  0  0  0  0  0  0  0  0  0  0  0
   32.1600   26.5997   30.8315 C   0  0  0  0  0  0  0  0  0  0  0  0
   33.5329   27.3330   42.4798 O   0  0  0  0  0  0  0  0  0  0  0  0
  1 16  1  0
  1 22  2  0
  2  5  1  0
  2  7  1  0
  2 21  1  0
  3 20  3  0
  4 18  1  0
  4 19  1  0
  4 23  1  0
  4 25  2  0
  5  6  2  0
  5 22  1  0
  6 24  1  0
  7 10  1  0
  7 17  2  0
  8  9  2  0
  8 17  1  0
  9 14  1  0
 10 14  2  0
 11 12  2  0
 11 14  1  0
 11 23  1  0
 13 15  1  0
 15 21  2  0
 15 22  1  0
 16 24  2  0
 20 21  1  0
M  END
$$$$
