
     RDKit          3D

 10 10  0  0  0  0  0  0  0  0999 V2000
   62.0775   56.0422  108.5091 C   0  0  0  0  0  0  0  0  0  0  0  0
   64.4312   55.1921  108.7996 C   0  0  0  0  0  0  0  0  0  0  0  0
   63.0803   55.3632  109.4547 C   0  0  0  0  0  0  0  0  0  0  0  0
   61.0201   55.0266  108.1596 C   0  0  0  0  0  0  0  0  0  0  0  0
   61.5182   53.8909  108.6002 N   0  0  0  0  0  0  0  0  0  0  0  0
   63.2378   56.2535  110.6548 C   0  0  0  0  0  0  0  0  0  0  0  0
   62.9289   52.6648  110.1912 C   0  0  0  0  0  0  0  0  0  0  0  0
   62.3849   54.0442  109.8072 C   0  0  0  0  0  0  0  0  0  0  0  0
   59.9316   55.2188  107.5994 O   0  0  0  0  0  0  0  0  0  0  0  0
   62.0565   51.1083  110.1510 S   0  0  0  0  0  0  0  0  0  0  0  0
  1  3  1  0
  1  4  1  0
  2  3  1  0
  3  6  1  0
  3  8  1  0
  4  5  1  0
  4  9  2  0
  5  8  1  0
  7  8  1  0
  7 10  1  0
M  END
$$$$
