
     RDKit          3D

 29 32  0  0  0  0  0  0  0  0999 V2000
   -3.1334    0.4776    1.0650 N   0  0  0  0  0  0  0  0  0  0  0  0
    2.1376    0.2445   -0.4952 P   0  0  2  0  0  0  0  0  0  0  0  0
    0.6224    1.3187    1.2268 C   0  0  0  0  0  0  0  0  0  0  0  0
    7.7332   -1.7025   -0.9804 O   0  0  0  0  0  0  0  0  0  0  0  0
   -4.9403   -1.7535   -0.9525 C   0  0  0  0  0  0  0  0  0  0  0  0
   -0.4610    2.3488    1.5505 C   0  0  1  0  0  0  0  0  0  0  0  0
   -4.0773   -1.1864   -0.0217 C   0  0  0  0  0  0  0  0  0  0  0  0
    1.0269    1.4809   -0.1125 O   0  0  0  0  0  0  0  0  0  0  0  0
   -1.5597    2.1783    0.6782 O   0  0  0  0  0  0  0  0  0  0  0  0
   -2.6867    1.8189    1.4488 C   0  0  2  0  0  0  0  0  0  0  0  0
    6.5084   -1.4940   -2.1288 P   0  0  0  0  0  0  0  0  0  0  0  0
   -4.8134    0.9984   -0.5941 N   0  0  0  0  0  0  0  0  0  0  0  0
   -0.9278    2.2069    2.9854 C   0  0  2  0  0  0  0  0  0  0  0  0
    2.7631    0.5438   -2.1109 N   0  0  0  0  0  0  0  0  0  0  0  0
    7.0315   -0.6265   -3.2522 O   0  0  0  0  0  0  0  0  0  0  0  0
   -4.0404    0.1565    0.1343 C   0  0  0  0  0  0  0  0  0  0  0  0
   -2.6159   -0.7250    1.4354 C   0  0  0  0  0  0  0  0  0  0  0  0
   -3.1831   -1.7811    0.7896 N   0  0  0  0  0  0  0  0  0  0  0  0
    1.4327   -1.0940   -0.4640 O   0  0  0  0  0  0  0  0  0  0  0  0
    5.1785   -0.7427   -1.3818 O   0  0  0  0  0  0  0  0  0  0  0  0
   -5.7275   -0.9082   -1.6831 N   0  0  0  0  0  0  0  0  0  0  0  0
   -2.3377    1.8771    2.9220 C   0  0  1  0  0  0  0  0  0  0  0  0
    3.2255   -2.0561   -2.5622 O   0  0  0  0  0  0  0  0  0  0  0  0
    6.0717   -3.0107   -2.7419 O   0  0  0  0  0  0  0  0  0  0  0  0
   -5.0075   -3.1653   -1.1541 N   0  0  0  0  0  0  0  0  0  0  0  0
   -5.6685    0.4517   -1.5103 C   0  0  0  0  0  0  0  0  0  0  0  0
    3.9199   -0.7129   -2.5245 P   0  0  1  0  0  0  0  0  0  0  0  0
    3.4078    0.2420    0.6256 O   0  0  0  0  0  0  0  0  0  0  0  0
   -1.9098    3.1523    3.3368 O   0  0  0  0  0  0  0  0  0  0  0  0
 10  1  1  6
  1 16  1  0
  1 17  1  0
  2  8  1  0
  2 14  1  0
  2 19  2  0
  2 28  1  1
  6  3  1  6
  3  8  1  0
  4 11  1  0
  5  7  2  0
  5 21  1  0
  5 25  1  0
  6  9  1  0
  6 13  1  0
  7 16  1  0
  7 18  1  0
  9 10  1  0
 10 22  1  0
 11 15  2  0
 11 20  1  0
 11 24  1  0
 12 16  2  0
 12 26  1  0
 13 22  1  0
 13 29  1  1
 27 14  1  1
 17 18  2  0
 20 27  1  0
 21 26  2  0
 22 29  1  1
 23 27  2  0
M  END
