
     RDKit          3D

 25 26  0  0  0  0  0  0  0  0999 V2000
   -5.6323   -0.0119   -0.7126 C   0  0  0  0  0  0  0  0  0  0  0  0
   -3.7712    0.1630    0.7508 C   0  0  0  0  0  0  0  0  0  0  0  0
   -2.9768    2.0555    0.2086 C   0  0  0  0  0  0  0  0  0  0  0  0
   -5.0891   -1.7596    0.8227 C   0  0  0  0  0  0  0  0  0  0  0  0
    2.5794   -0.6797   -1.8442 P   0  0  1  0  0  0  0  0  0  0  0  0
   -0.4735   -0.9230    0.6115 C   0  0  0  0  0  0  0  0  0  0  0  0
    6.0519    2.1763   -0.4351 O   0  0  0  0  0  0  0  0  0  0  0  0
    6.2222    0.0862    1.1382 O   0  0  0  0  0  0  0  0  0  0  0  0
    7.8164    0.3641   -1.0918 O   0  0  0  0  0  0  0  0  0  0  0  0
   -4.0636    1.9003   -0.5978 N   0  0  0  0  0  0  0  0  0  0  0  0
   -4.5386    0.6957   -0.2271 C   0  0  0  0  0  0  0  0  0  0  0  0
   -6.4678    0.5099   -1.7459 N   0  0  0  0  0  0  0  0  0  0  0  0
   -0.3721    0.4573    1.2901 C   0  0  1  0  0  0  0  0  0  0  0  0
   -1.6845    0.8265    2.0044 C   0  0  0  0  0  0  0  0  0  0  0  0
    2.8838   -2.3420   -1.9792 O   0  0  0  0  0  0  0  0  0  0  0  0
   -4.0149   -1.0554    1.2914 N   0  0  0  0  0  0  0  0  0  0  0  0
    1.0352   -0.3890   -1.1792 O   0  0  0  0  0  0  0  0  0  0  0  0
   -5.8847   -1.2395   -0.1671 N   0  0  0  0  0  0  0  0  0  0  0  0
    0.8109   -1.3020   -0.1304 C   0  0  0  0  0  0  0  0  0  0  0  0
    5.1075   -0.0865   -1.4105 O   0  0  0  0  0  0  0  0  0  0  0  0
    0.6730    0.4372    2.2286 O   0  0  0  0  0  0  0  0  0  0  0  0
    6.2853    0.6815   -0.4456 P   0  0  0  0  0  0  0  0  0  0  0  0
    3.8505    0.1081   -0.8108 C   0  0  0  0  0  0  0  0  0  0  0  0
   -2.7756    1.0067    1.0472 N   0  0  0  0  0  0  0  0  0  0  0  0
    2.6321   -0.0649   -3.2239 O   0  0  0  0  0  0  0  0  0  0  0  0
  1 11  2  0
  1 12  1  0
  1 18  1  0
  2 11  1  0
  2 16  2  0
  2 24  1  0
  3 10  2  0
  3 24  1  0
  4 16  1  0
  4 18  2  0
  5 15  1  6
  5 17  1  0
  5 23  1  0
  5 25  2  0
  6 13  1  0
  6 19  1  0
  7 22  2  0
  8 22  1  0
  9 22  1  0
 10 11  1  0
 13 14  1  0
 13 21  1  1
 14 24  1  0
 17 19  1  0
 20 22  1  0
 20 23  1  0
M  END
