
     RDKit          3D

 21 21  0  0  0  0  0  0  0  0999 V2000
    2.7702   -1.7265    0.5724 P   0  0  1  0  0  0  0  0  0  0  0  0
    4.5617   -0.0855   -0.1249 C   0  0  0  0  0  0  0  0  0  0  0  0
   -4.3344   -0.0354    1.1483 C   0  0  0  0  0  0  0  0  0  0  0  0
    6.0301   -0.2235   -2.5847 O   0  0  0  0  0  0  0  0  0  0  0  0
   -5.5026    0.6150    0.9027 N   0  0  0  0  0  0  0  0  0  0  0  0
    4.2440   -1.4506   -0.2394 O   0  0  0  0  0  0  0  0  0  0  0  0
   -4.3098   -1.0896    2.1136 N   0  0  0  0  0  0  0  0  0  0  0  0
    1.5678   -0.6835   -0.0444 O   0  0  0  0  0  0  0  0  0  0  0  0
    2.3155   -3.3379    0.3245 O   0  0  0  0  0  0  0  0  0  0  0  0
   -1.9669   -0.3383    0.7095 O   0  0  0  0  0  0  0  0  0  0  0  0
   -5.5727    1.6224   -0.0056 C   0  0  0  0  0  0  0  0  0  0  0  0
    0.3506   -0.9789    0.5977 C   0  0  0  0  0  0  0  0  0  0  0  0
   -6.8123    2.2857   -0.2415 N   0  0  0  0  0  0  0  0  0  0  0  0
   -0.7292   -0.0475    0.0656 C   0  0  0  0  0  0  0  0  0  0  0  0
    6.5419    1.8602   -0.8393 O   0  0  0  0  0  0  0  0  0  0  0  0
    2.9574   -1.4888    2.0553 O   0  0  0  0  0  0  0  0  0  0  0  0
    7.2274   -0.6024   -0.2910 O   0  0  0  0  0  0  0  0  0  0  0  0
   -3.2696    1.3793   -0.4802 C   0  0  0  0  0  0  0  0  0  0  0  0
   -3.1718    0.3347    0.4541 C   0  0  0  0  0  0  0  0  0  0  0  0
    6.1465    0.2190   -0.9554 P   0  0  0  0  0  0  0  0  0  0  0  0
   -4.4605    1.9968   -0.6886 N   0  0  0  0  0  0  0  0  0  0  0  0
  1  6  1  0
  1  8  1  0
  1  9  1  1
  1 16  2  0
  2  6  1  0
  2 20  1  0
  3  5  1  0
  3  7  1  0
  3 19  2  0
  4 20  1  0
  5 11  2  0
  8 12  1  0
 10 14  1  0
 10 19  1  0
 11 13  1  0
 11 21  1  0
 12 14  1  0
 15 20  1  0
 17 20  2  0
 18 19  1  0
 18 21  2  0
M  END
