
     RDKit          3D

 30 32  0  0  0  0  0  0  0  0999 V2000
   -2.4113   -0.9862   -1.1625 C   0  0  2  0  0  0  0  0  0  0  0  0
    3.7256   -1.1462   -0.6917 O   0  0  0  0  0  0  0  0  0  0  0  0
    8.3263    0.1818   -0.4316 O   0  0  0  0  0  0  0  0  0  0  0  0
   -4.3434    1.0768    3.1638 N   0  0  0  0  0  0  0  0  0  0  0  0
   -5.7165   -0.9753    0.4691 N   0  0  0  0  0  0  0  0  0  0  0  0
    1.9579    2.0427    2.1549 O   0  0  0  0  0  0  0  0  0  0  0  0
    0.6864   -0.0040    0.3060 C   0  0  0  0  0  0  0  0  0  0  0  0
    4.4250   -0.9179    0.8359 P   0  0  2  0  0  0  0  0  0  0  0  0
   -6.6502    0.3375    3.0055 N   0  0  0  0  0  0  0  0  0  0  0  0
   -3.0582    1.1396    2.6873 C   0  0  0  0  0  0  0  0  0  0  0  0
    2.7332    1.2344    1.1384 P   0  0  2  0  0  0  0  0  0  0  0  0
    6.4364   -1.4767   -1.5526 O   0  0  0  0  0  0  0  0  0  0  0  0
    5.8241    0.0508    0.7202 O   0  0  0  0  0  0  0  0  0  0  0  0
    4.7719   -2.2714    1.4157 O   0  0  0  0  0  0  0  0  0  0  0  0
   -3.6832   -0.1860    0.8723 C   0  0  0  0  0  0  0  0  0  0  0  0
   -1.2539   -1.2410   -0.3945 O   0  0  0  0  0  0  0  0  0  0  0  0
   -2.7178    0.5047    1.5256 N   0  0  0  0  0  0  0  0  0  0  0  0
   -2.2179    0.3000   -1.9768 C   0  0  2  0  0  0  0  0  0  0  0  0
    4.0154    2.1840    0.5710 O   0  0  0  0  0  0  0  0  0  0  0  0
    1.7091    0.8406   -0.1683 O   0  0  0  0  0  0  0  0  0  0  0  0
   -0.2497   -0.3665   -0.8495 C   0  0  1  0  0  0  0  0  0  0  0  0
   -2.0879    0.0048   -3.3435 O   0  0  0  0  0  0  0  0  0  0  0  0
   -5.3164    0.3845    2.4987 C   0  0  0  0  0  0  0  0  0  0  0  0
   -4.9572   -0.2591    1.3197 C   0  0  0  0  0  0  0  0  0  0  0  0
   -0.9241    0.8552   -1.4505 C   0  0  0  0  0  0  0  0  0  0  0  0
    3.3177   -0.1751    1.8949 O   0  0  0  0  0  0  0  0  0  0  0  0
   -4.8295   -1.3249   -0.5037 C   0  0  0  0  0  0  0  0  0  0  0  0
    7.0231   -0.8435   -0.0956 P   0  0  0  0  0  0  0  0  0  0  0  0
    7.5134   -1.9729    0.7823 O   0  0  0  0  0  0  0  0  0  0  0  0
   -3.5721   -0.8639   -0.2780 N   0  0  0  0  0  0  0  0  0  0  0  0
  1 16  1  0
  1 18  1  0
  1 30  1  1
  8  2  1  6
  3 28  1  0
  4 10  2  0
  4 23  1  0
  5 24  1  0
  5 27  2  0
  6 11  2  0
  7 20  1  0
 21  7  1  1
  8 13  1  0
  8 14  2  0
  8 26  1  0
  9 23  1  0
 10 17  1  0
 11 19  1  6
 11 20  1  0
 11 26  1  0
 12 28  1  0
 13 28  1  0
 15 17  2  0
 15 24  1  0
 15 30  1  0
 16 21  1  0
 18 22  1  6
 18 25  1  0
 21 25  1  0
 23 24  2  0
 27 30  1  0
 28 29  2  0
M  END
