
     RDKit          3D

 31 33  0  0  0  0  0  0  0  0999 V2000
    1.0951    0.7489   -2.8134 O   0  0  0  0  0  0  0  0  0  0  0  0
    5.0540    1.3645    0.3977 O   0  0  0  0  0  0  0  0  0  0  0  0
   -6.7727   -0.8157    1.3017 N   0  0  0  0  0  0  0  0  0  0  0  0
   -3.4597    0.3045    0.1192 C   0  0  0  0  0  0  0  0  0  0  0  0
   -3.2787   -0.2741    2.3720 C   0  0  0  0  0  0  0  0  0  0  0  0
   -1.1478   -0.5948   -3.2339 O   0  0  0  0  0  0  0  0  0  0  0  0
   -4.2230    0.6120   -1.8370 C   0  0  0  0  0  0  0  0  0  0  0  0
   -2.6878    0.1784    1.2255 N   0  0  0  0  0  0  0  0  0  0  0  0
    4.8896    0.1299   -0.7505 P   0  0  0  0  0  0  0  0  0  0  0  0
   -3.0857    0.7116   -1.1013 N   0  0  0  0  0  0  0  0  0  0  0  0
   -4.7757   -0.0072    0.1092 C   0  0  0  0  0  0  0  0  0  0  0  0
   -1.0547    1.8106   -0.6123 O   0  0  0  0  0  0  0  0  0  0  0  0
    2.0292    0.6191    0.8711 O   0  0  0  0  0  0  0  0  0  0  0  0
    6.2100   -1.6332    1.4388 O   0  0  0  0  0  0  0  0  0  0  0  0
   -5.3878   -0.4706    1.2684 C   0  0  0  0  0  0  0  0  0  0  0  0
   -4.6132   -0.5930    2.3879 N   0  0  0  0  0  0  0  0  0  0  0  0
    3.9589   -1.1597   -0.1412 O   0  0  0  0  0  0  0  0  0  0  0  0
    4.1117    0.7607   -2.1137 O   0  0  0  0  0  0  0  0  0  0  0  0
   -1.7486    1.0604   -1.5855 C   0  0  1  0  0  0  0  0  0  0  0  0
    0.2921    1.3778   -0.6030 C   0  0  2  0  0  0  0  0  0  0  0  0
    0.4729    0.2620   -1.6459 C   0  0  1  0  0  0  0  0  0  0  0  0
    6.2580   -0.3703   -1.1565 O   0  0  0  0  0  0  0  0  0  0  0  0
   -5.2952    0.1751   -1.1195 N   0  0  0  0  0  0  0  0  0  0  0  0
    4.5204   -1.5097    1.4292 P   0  0  2  0  0  0  0  0  0  0  0  0
    4.0609   -0.3040    2.5419 O   0  0  0  0  0  0  0  0  0  0  0  0
    1.5460   -1.5245    2.6019 O   0  0  0  0  0  0  0  0  0  0  0  0
    3.9533   -2.8419    1.8666 O   0  0  0  0  0  0  0  0  0  0  0  0
    1.9515    0.8941    3.4852 O   0  0  0  0  0  0  0  0  0  0  0  0
    2.3809   -0.0630    2.3958 P   0  0  2  0  0  0  0  0  0  0  0  0
    0.6511    0.9021    0.8097 C   0  0  0  0  0  0  0  0  0  0  0  0
   -0.9454   -0.1898   -1.9049 C   0  0  2  0  0  0  0  0  0  0  0  0
 21  1  1  6
  2  9  1  0
  3 15  1  0
  4  8  2  0
  4 10  1  0
  4 11  1  0
  5  8  1  0
  5 16  2  0
 31  6  1  6
  7 10  1  0
  7 23  2  0
  9 17  1  0
  9 18  1  0
  9 22  2  0
 19 10  1  1
 11 15  2  0
 11 23  1  0
 12 19  1  0
 12 20  1  0
 13 29  1  0
 13 30  1  0
 24 14  1  6
 15 16  1  0
 17 24  1  0
 19 31  1  0
 20 21  1  0
 20 30  1  1
 21 31  1  0
 24 25  1  0
 24 27  2  0
 25 29  1  0
 29 26  1  1
 28 29  2  0
M  END
