
     RDKit          3D

 18 19  0  0  0  0  0  0  0  0999 V2000
    6.7800  -12.4483  -13.6469 C   0  0  0  0  0  0  0  0  0  0  0  0
    7.4719  -13.9345  -13.5930 C   0  0  0  0  0  0  0  0  0  0  0  0
    7.0420  -13.7131  -10.2827 O   0  0  0  0  0  0  0  0  0  0  0  0
    3.9357  -13.8479  -10.6399 O   0  0  0  0  0  0  0  0  0  0  0  0
    4.6012  -13.4310  -13.4472 C   0  0  0  0  0  0  0  0  0  0  0  0
    4.9142  -14.6549  -13.9485 C   0  0  0  0  0  0  0  0  0  0  0  0
    6.0197  -14.0406   -9.9291 C   0  0  0  0  0  0  0  0  0  0  0  0
    6.5832  -11.3108  -11.4174 O   0  0  0  0  0  0  0  0  0  0  0  0
    7.4542  -11.6994  -14.4551 O   0  0  0  0  0  0  0  0  0  0  0  0
    4.6501  -12.0202  -11.5111 C   0  0  0  0  0  0  0  0  0  0  0  0
    6.3084  -15.0398  -13.5091 O   0  0  0  0  0  0  0  0  0  0  0  0
    4.9594  -12.7310  -11.9428 C   0  0  0  0  0  0  0  0  0  0  0  0
    6.3614  -12.2243  -12.1159 C   0  0  0  0  0  0  0  0  0  0  0  0
    8.7887  -14.0698  -12.8498 C   0  0  0  0  0  0  0  0  0  0  0  0
    5.5036  -12.4727  -14.3402 C   0  0  0  0  0  0  0  0  0  0  0  0
    4.2614  -15.6848  -14.2772 O   0  0  0  0  0  0  0  0  0  0  0  0
    4.9717  -13.5850  -10.7095 C   0  0  0  0  0  0  0  0  0  0  0  0
    3.1949  -13.4805  -13.4161 O   0  0  0  0  0  0  0  0  0  0  0  0
  1  2  1  0
  1  9  1  0
  1 13  1  0
  1 15  1  0
  2 11  1  0
  2 14  1  0
  3  7  1  0
  4 17  1  0
  5  6  1  0
  5 12  1  0
  5 15  1  0
  5 18  1  0
  6 11  1  0
  6 16  2  0
  7 17  1  0
  8 13  1  0
 10 12  1  0
 12 13  1  0
 12 17  1  0
M  END
$$$$
