
     RDKit          3D

 23 25  0  0  0  0  0  0  0  0999 V2000
   23.8777  -48.0639   53.8851 C   0  0  0  0  0  0  0  0  0  0  0  0
   22.2231  -49.3821   52.8537 C   0  0  0  0  0  0  0  0  0  0  0  0
   18.5657  -50.6081   51.8518 C   0  0  0  0  0  0  0  0  0  0  0  0
   21.2641  -47.2974   51.3583 C   0  0  0  0  0  0  0  0  0  0  0  0
   23.1335  -52.1731   52.4382 C   0  0  0  0  0  0  0  0  0  0  0  0
   19.5394  -51.5819   51.9353 C   0  0  0  0  0  0  0  0  0  0  0  0
   20.8816  -51.1861   51.9675 C   0  0  0  0  0  0  0  0  0  0  0  0
   17.7374  -49.7645   51.7765 N   0  0  0  0  0  0  0  0  0  0  0  0
   22.0281  -54.5456   52.5512 C   0  0  0  0  0  0  0  0  0  0  0  0
   19.0662  -52.8254   51.9030 N   0  0  0  0  0  0  0  0  0  0  0  0
   22.9213  -45.7444   52.4276 C   0  0  0  0  0  0  0  0  0  0  0  0
   25.0118  -48.2528   53.4012 O   0  0  0  0  0  0  0  0  0  0  0  0
   23.9515  -53.1995   52.7042 C   0  0  0  0  0  0  0  0  0  0  0  0
   21.7388  -52.2841   52.2612 C   0  0  0  0  0  0  0  0  0  0  0  0
   19.4989  -54.9840   52.0826 O   0  0  0  0  0  0  0  0  0  0  0  0
   21.2137  -53.5445   52.3033 C   0  0  0  0  0  0  0  0  0  0  0  0
   23.8208  -48.0420   55.2139 O   0  0  0  0  0  0  0  0  0  0  0  0
   23.3718  -54.4240   52.7561 C   0  0  0  0  0  0  0  0  0  0  0  0
   22.3097  -47.1116   52.2503 C   0  0  0  0  0  0  0  0  0  0  0  0
   19.8830  -53.8436   52.0883 C   0  0  0  0  0  0  0  0  0  0  0  0
   20.6912  -48.5688   51.2093 C   0  0  0  0  0  0  0  0  0  0  0  0
   22.7965  -48.1557   52.9644 C   0  0  0  0  0  0  0  0  0  0  0  0
   21.2172  -49.5673   51.9564 C   0  0  0  0  0  0  0  0  0  0  0  0
  1 12  2  0
  1 17  1  0
  1 22  1  0
  2 22  1  0
  2 23  2  0
  3  6  1  0
  3  8  3  0
  4 19  1  0
  4 21  2  0
  5 13  1  0
  5 14  2  0
  6  7  2  0
  6 10  1  0
  7 14  1  0
  7 23  1  0
  9 16  2  0
  9 18  1  0
 10 20  1  0
 11 19  1  0
 13 18  2  0
 14 16  1  0
 15 20  2  0
 16 20  1  0
 19 22  2  0
 21 23  1  0
M  END
$$$$
