
     RDKit          3D

 10  8  0  0  0  0  0  0  0  0999 V2000
    6.7818   24.8665   23.0918 C   0  0  0  0  0  0  0  0  0  0  0  0
    9.9181   22.1360   28.2835 O   0  0  0  0  0  0  0  0  0  0  0  0
    6.9454   24.7652   27.7204 C   0  0  0  0  0  0  0  0  0  0  0  0
    5.9079   24.3113   29.3560 S   0  0  0  0  0  0  0  0  0  0  0  0
    8.3766   23.9743   27.5462 C   0  0  0  0  0  0  0  0  0  0  0  0
    8.9741   23.1334   28.6708 C   0  0  0  0  0  0  0  0  0  0  0  0
    5.2792   28.1562   24.9649 S   0  0  0  0  0  0  0  0  0  0  0  0
    5.8846   26.8684   23.9573 C   0  0  0  0  0  0  0  0  0  0  0  0
    6.0345   25.4223   24.2908 C   0  0  0  0  0  0  0  0  0  0  0  0
    9.2386   24.1475   26.1085 S   0  0  0  0  0  0  0  0  0  0  0  0
  1  9  1  0
  2  6  1  0
  3  4  1  0
  3  5  1  0
  5  6  1  0
  5 10  2  0
  7  8  1  0
  8  9  1  0
M  END
$$$$
