
     RDKit          3D

 41 43  0  0  0  0  0  0  0  0999 V2000
  -24.8417    1.4101  -30.9116 C   0  0  0  0  0  0  0  0  0  0  0  0
  -22.4904    5.5663  -31.7832 O   0  0  0  0  0  0  0  0  0  0  0  0
  -22.2472    1.0332  -33.4309 O   0  0  0  0  0  0  0  0  0  0  0  0
  -28.3007    2.2170  -33.7575 C   0  0  0  0  0  0  0  0  0  0  0  0
  -21.3915   -3.2425  -30.2041 N   0  0  0  0  0  0  0  0  0  0  0  0
  -24.8996    3.9847  -33.8739 N   0  0  0  0  0  0  0  0  0  0  0  0
  -20.1351    1.8175  -28.1108 O   0  0  0  0  0  0  0  0  0  0  0  0
  -22.0258   -2.0712  -29.9321 C   0  0  0  0  0  0  0  0  0  0  0  0
  -22.8737    2.9649  -30.1351 C   0  0  0  0  0  0  0  0  0  0  0  0
  -19.5440   -4.4632  -30.5861 N   0  0  0  0  0  0  0  0  0  0  0  0
  -25.7263    0.6256  -30.2055 O   0  0  0  0  0  0  0  0  0  0  0  0
  -19.2894   -2.2384  -30.0927 N   0  0  0  0  0  0  0  0  0  0  0  0
  -29.8484    0.8783  -35.5130 C   0  0  0  0  0  0  0  0  0  0  0  0
  -21.8959    0.3925  -29.3579 C   0  0  0  0  0  0  0  0  0  0  0  0
  -20.9987    1.8644  -29.2776 C   0  0  0  0  0  0  0  0  0  0  0  0
  -21.2446   -0.8679  -29.6871 C   0  0  0  0  0  0  0  0  0  0  0  0
  -20.9882    4.2108  -29.4444 O   0  0  0  0  0  0  0  0  0  0  0  0
  -19.8636   -1.0386  -29.7989 C   0  0  0  0  0  0  0  0  0  0  0  0
  -26.9930    3.5866  -34.6106 C   0  0  0  0  0  0  0  0  0  0  0  0
  -27.2369    2.1988  -33.8138 C   0  0  0  0  0  0  0  0  0  0  0  0
  -24.9492    7.0450  -31.9590 C   0  0  0  0  0  0  0  0  0  0  0  0
  -23.6123    1.6294  -30.1844 C   0  0  0  0  0  0  0  0  0  0  0  0
  -21.7950    3.0100  -29.1584 C   0  0  0  0  0  0  0  0  0  0  0  0
  -29.1584    0.8789  -34.2617 C   0  0  0  0  0  0  0  0  0  0  0  0
  -25.0538    8.2471  -32.6659 N   0  0  0  0  0  0  0  0  0  0  0  0
  -26.3901    5.4150  -33.2437 C   0  0  0  0  0  0  0  0  0  0  0  0
  -26.2000    4.2906  -33.9742 N   0  0  0  0  0  0  0  0  0  0  0  0
  -25.3427   -0.2354  -33.7846 O   0  0  0  0  0  0  0  0  0  0  0  0
  -22.9671    4.8573  -32.7227 C   0  0  0  0  0  0  0  0  0  0  0  0
  -25.2056    5.8978  -32.7638 C   0  0  0  0  0  0  0  0  0  0  0  0
  -24.3111    4.9411  -33.1807 C   0  0  0  0  0  0  0  0  0  0  0  0
  -22.7580    0.6515  -30.4300 O   0  0  0  0  0  0  0  0  0  0  0  0
  -24.7258    0.4726  -33.0362 C   0  0  0  0  0  0  0  0  0  0  0  0
  -23.6772    0.5296  -35.1701 O   0  0  0  0  0  0  0  0  0  0  0  0
  -23.2451   -2.1119  -29.8784 O   0  0  0  0  0  0  0  0  0  0  0  0
  -27.5802    5.8805  -33.1529 O   0  0  0  0  0  0  0  0  0  0  0  0
  -22.2340    4.0296  -33.2542 O   0  0  0  0  0  0  0  0  0  0  0  0
  -26.3845    2.0951  -32.5786 O   0  0  0  0  0  0  0  0  0  0  0  0
  -23.7287    0.6829  -33.8190 C   0  0  0  0  0  0  0  0  0  0  0  0
  -25.1553    1.4976  -32.3532 C   0  0  0  0  0  0  0  0  0  0  0  0
  -20.0947   -3.3389  -30.3085 C   0  0  0  0  0  0  0  0  0  0  0  0
  1 11  1  0
  1 22  1  0
  1 40  1  0
  2 29  1  0
  3 39  1  0
  4 20  1  0
  4 24  1  0
  5  8  4  0
  5 41  4  0
  6 27  4  0
  6 31  4  0
  7 15  1  0
  8 16  4  0
  8 35  2  0
  9 22  1  0
  9 23  1  0
 10 41  1  0
 12 18  4  0
 12 41  4  0
 13 24  1  0
 14 15  1  0
 14 16  1  0
 14 32  1  0
 15 23  1  0
 16 18  4  0
 17 23  1  0
 19 20  1  0
 19 27  1  0
 20 38  1  0
 21 25  1  0
 21 30  1  0
 22 32  1  0
 26 27  4  0
 26 30  4  0
 26 36  2  0
 28 33  1  0
 29 31  1  0
 29 37  2  0
 30 31  4  0
 33 39  1  0
 33 40  1  0
 34 39  1  0
 38 40  1  0
M  END
$$$$
