
     RDKit          3D

 24 26  0  0  0  0  0  0  0  0999 V2000
   33.7337   27.5606   42.2086 O   0  0  0  0  0  0  0  0  0  0  0  0
   31.3601   28.0180   37.9877 C   0  0  0  0  0  0  0  0  0  0  0  0
   28.3789   28.2771   35.5246 O   0  0  0  0  0  0  0  0  0  0  0  0
   33.2921   28.3682   36.6459 C   0  0  0  0  0  0  0  0  0  0  0  0
   32.5029   28.1459   35.5244 C   0  0  0  0  0  0  0  0  0  0  0  0
   29.0392   27.5559   32.0524 N   0  0  0  0  0  0  0  0  0  0  0  0
   32.4939   27.0827   33.1498 C   0  0  0  0  0  0  0  0  0  0  0  0
   29.0557   28.0251   34.4945 C   0  0  0  0  0  0  0  0  0  0  0  0
   31.1549   27.8457   35.6310 C   0  0  0  0  0  0  0  0  0  0  0  0
   27.0767   28.0314   33.2596 N   0  0  0  0  0  0  0  0  0  0  0  0
   33.0674   26.7184   31.9160 C   0  0  0  0  0  0  0  0  0  0  0  0
   34.0124   28.9561   41.4845 P   0  0  0  0  0  0  0  0  0  0  0  0
   32.7273   28.2541   37.9140 C   0  0  0  0  0  0  0  0  0  0  0  0
   28.3978   27.7148   33.2704 C   0  0  0  0  0  0  0  0  0  0  0  0
   32.9700   29.0755   40.1851 N   0  0  0  0  0  0  0  0  0  0  0  0
   33.6178   28.3215   39.1005 C   0  0  0  0  0  0  0  0  0  0  0  0
   35.6514   28.8348   41.0380 O   0  0  0  0  0  0  0  0  0  0  0  0
   30.3678   27.2713   32.0583 C   0  0  0  0  0  0  0  0  0  0  0  0
   30.9463   26.9063   30.8371 C   0  0  0  0  0  0  0  0  0  0  0  0
   33.8610   30.0008   42.4817 O   0  0  0  0  0  0  0  0  0  0  0  0
   31.1144   27.3724   33.2721 C   0  0  0  0  0  0  0  0  0  0  0  0
   32.2940   26.6106   30.7664 C   0  0  0  0  0  0  0  0  0  0  0  0
   30.4103   27.6822   34.4484 C   0  0  0  0  0  0  0  0  0  0  0  0
   30.5535   27.8173   36.8715 C   0  0  0  0  0  0  0  0  0  0  0  0
  1 12  1  0
  2 13  1  0
  2 24  2  0
  3  8  2  0
  4  5  1  0
  4 13  2  0
  5  9  2  0
  6 14  2  0
  6 18  1  0
  7 11  1  0
  7 21  2  0
  8 14  1  0
  8 23  1  0
  9 23  1  0
  9 24  1  0
 10 14  1  0
 11 22  2  0
 12 15  1  0
 12 17  1  0
 12 20  2  0
 13 16  1  0
 15 16  1  0
 18 19  2  0
 18 21  1  0
 19 22  1  0
 21 23  1  0
M  END
$$$$
