
     RDKit          3D

 17 19  0  0  0  0  0  0  0  0999 V2000
   -3.1717   -0.9302    0.2066 C   0  0  0  0  0  0  0  0  0  0  0  0
    0.7982    0.1039   -0.1732 C   0  0  0  0  0  0  0  0  0  0  0  0
   -0.5734    0.0205   -0.0521 C   0  0  0  0  0  0  0  0  0  0  0  0
    4.6019    0.0709   -0.3316 N   0  0  0  0  0  0  0  0  0  0  0  0
    2.5956   -1.3163   -0.4846 N   0  0  0  0  0  0  0  0  0  0  0  0
   -1.3378    2.4015    0.3817 C   0  0  0  0  0  0  0  0  0  0  0  0
   -0.8440   -1.3400   -0.2151 C   0  0  0  0  0  0  0  0  0  0  0  0
    3.1880   -0.1032   -0.3083 C   0  0  0  0  0  0  0  0  0  0  0  0
    1.2584   -1.1408   -0.4045 C   0  0  0  0  0  0  0  0  0  0  0  0
    2.0804    1.1740   -0.0278 S   0  0  0  0  0  0  0  0  0  0  0  0
   -2.1374    3.1160    1.0448 O   0  0  0  0  0  0  0  0  0  0  0  0
    0.2836   -2.0647   -0.4396 N   0  0  0  0  0  0  0  0  0  0  0  0
   -2.4935   -3.5469   -0.2823 Cl  0  0  0  0  0  0  0  0  0  0  0  0
   -1.5861    0.9510    0.2395 C   0  0  0  0  0  0  0  0  0  0  0  0
   -2.1420   -1.8370   -0.0922 C   0  0  0  0  0  0  0  0  0  0  0  0
   -0.2538    3.0017   -0.2479 O   0  0  0  0  0  0  0  0  0  0  0  0
   -2.8988    0.4432    0.3743 C   0  0  0  0  0  0  0  0  0  0  0  0
  1 15  1  0
  1 17  2  0
  2  3  1  0
  2  9  2  0
  2 10  1  0
  3  7  1  0
  3 14  2  0
  4  8  1  0
  5  8  2  0
  5  9  1  0
  6 11  2  0
  6 14  1  0
  6 16  1  0
  7 12  1  0
  7 15  2  0
  8 10  1  0
  9 12  1  0
 13 15  1  0
 14 17  1  0
M  END
