
     RDKit          3D

 27 30  0  0  0  0  0  0  0  0999 V2000
   -2.0621    2.7319   -0.4854 N   0  0  0  0  0  0  0  0  0  0  0  0
   -1.3936   -0.1706   -1.8581 C   0  0  0  0  0  0  0  0  0  0  0  0
    2.4477   -0.6772    1.6048 N   0  0  0  0  0  0  0  0  0  0  0  0
    2.5361   -3.3311   -1.6923 C   0  0  0  0  0  0  0  0  0  0  0  0
   -1.2026   -0.9695    1.8856 C   0  0  0  0  0  0  0  0  0  0  0  0
   -2.1802   -2.1858   -0.0842 C   0  0  0  0  0  0  0  0  0  0  0  0
    2.4896   -2.3891   -0.5321 C   0  0  0  0  0  0  0  0  0  0  0  0
   -0.6652    5.9290    0.6565 C   0  0  0  0  0  0  0  0  0  0  0  0
   -2.5659   -3.1714    0.7688 F   0  0  0  0  0  0  0  0  0  0  0  0
    1.7533    2.1370    0.9119 C   0  0  0  0  0  0  0  0  0  0  0  0
   -2.0966   -1.2782   -2.3298 C   0  0  0  0  0  0  0  0  0  0  0  0
    3.1072   -1.8622    1.6907 C   0  0  0  0  0  0  0  0  0  0  0  0
    3.1214   -2.7090    0.6281 N   0  0  0  0  0  0  0  0  0  0  0  0
   -2.4768   -2.3011   -1.4520 C   0  0  0  0  0  0  0  0  0  0  0  0
   -0.2560    1.1056   -0.0642 C   0  0  0  0  0  0  0  0  0  0  0  0
   -0.9413    4.5571    0.2446 N   0  0  0  0  0  0  0  0  0  0  0  0
    1.7903   -0.3137    0.4704 C   0  0  0  0  0  0  0  0  0  0  0  0
   -2.0981    4.0716   -0.2658 C   0  0  0  0  0  0  0  0  0  0  0  0
   -0.1477    3.4823    0.3637 C   0  0  0  0  0  0  0  0  0  0  0  0
    1.8212   -1.1666   -0.6412 C   0  0  0  0  0  0  0  0  0  0  0  0
   -0.8213    2.3857   -0.0860 C   0  0  0  0  0  0  0  0  0  0  0  0
    1.0789    0.9848    0.4287 C   0  0  0  0  0  0  0  0  0  0  0  0
   -1.4922   -1.0599    0.4079 C   0  0  0  0  0  0  0  0  0  0  0  0
    3.7808   -2.2178    2.8955 N   0  0  0  0  0  0  0  0  0  0  0  0
   -3.2331   -3.4943   -1.9614 C   0  0  0  0  0  0  0  0  0  0  0  0
    1.1417    3.4008    0.8805 C   0  0  0  0  0  0  0  0  0  0  0  0
   -1.0608   -0.0608   -0.4999 C   0  0  0  0  0  0  0  0  0  0  0  0
  1 18  2  0
  1 21  1  0
  2 11  2  0
  2 27  1  0
  3 12  1  0
  3 17  2  0
  4  7  1  0
  5 23  1  0
  6  9  1  0
  6 14  2  0
  6 23  1  0
  7 13  1  0
  7 20  2  0
  8 16  1  0
 10 22  1  0
 10 26  2  0
 11 14  1  0
 12 13  2  0
 12 24  1  0
 14 25  1  0
 15 21  1  0
 15 22  2  0
 15 27  1  0
 16 18  1  0
 16 19  1  0
 17 20  1  0
 17 22  1  0
 19 21  2  0
 19 26  1  0
 23 27  2  0
M  END
