
     RDKit          3D

 24 28  0  0  0  0  0  0  0  0999 V2000
   -0.2417   -2.5102    0.2430 C   0  0  0  0  0  0  0  0  0  0  0  0
   -0.9348   -1.2201    0.0986 N   0  0  0  0  0  0  0  0  0  0  0  0
    1.6207    2.5132    0.2444 C   0  0  0  0  0  0  0  0  0  0  0  0
   -2.2545   -0.9586    0.1141 C   0  0  0  0  0  0  0  0  0  0  0  0
    5.5899   -1.1177   -0.0948 C   0  0  0  0  0  0  0  0  0  0  0  0
   -2.4779    0.4031    0.1584 C   0  0  0  0  0  0  0  0  0  0  0  0
   -4.8555    0.0113    0.1327 C   0  0  0  0  0  0  0  0  0  0  0  0
   -4.0135    2.2956    0.1645 O   0  0  0  0  0  0  0  0  0  0  0  0
   -4.6183   -1.3782    0.1122 C   0  0  0  0  0  0  0  0  0  0  0  0
   -0.9571    2.5039    0.3166 C   0  0  2  0  0  0  0  0  0  0  0  0
    4.2451   -1.5775   -0.0722 O   0  0  0  0  0  0  0  0  0  0  0  0
    0.3570    2.8273    1.0547 C   0  0  0  0  0  0  0  0  0  0  0  0
   -1.2314    1.0267    0.2194 C   0  0  0  0  0  0  0  0  0  0  0  0
    1.2978   -2.6862   -1.6797 N   0  0  0  0  0  0  0  0  0  0  0  0
   -0.9728    3.0631   -0.9707 O   0  0  0  0  0  0  0  0  0  0  0  0
   -3.7803    0.9225    0.1552 C   0  0  0  0  0  0  0  0  0  0  0  0
    1.9829    1.0597    0.2602 C   0  0  0  0  0  0  0  0  0  0  0  0
   -3.3060   -1.8773    0.1032 C   0  0  0  0  0  0  0  0  0  0  0  0
    1.8408   -1.0780    0.0789 C   0  0  0  0  0  0  0  0  0  0  0  0
   -0.3167   -0.0236    0.1602 C   0  0  0  0  0  0  0  0  0  0  0  0
    1.2361   -2.4308   -0.2392 C   0  0  1  0  0  0  0  0  0  0  0  0
    3.2678    0.6369    0.1840 N   0  0  0  0  0  0  0  0  0  0  0  0
    1.1062    0.0351    0.1862 N   0  0  0  0  0  0  0  0  0  0  0  0
    3.1635   -0.7063    0.0701 C   0  0  0  0  0  0  0  0  0  0  0  0
  1  2  1  0
  1 21  1  0
  2  4  1  0
  2 20  1  0
  3 12  1  0
  3 17  1  0
  4  6  1  0
  4 18  2  0
  5 11  1  0
  6 13  1  0
  6 16  2  0
  7  9  2  0
  7 16  1  0
  8 16  1  0
  9 18  1  0
 10 12  1  0
 10 13  1  0
 10 15  1  6
 11 24  1  0
 13 20  2  0
 21 14  1  6
 17 22  2  0
 17 23  1  0
 19 21  1  0
 19 23  1  0
 19 24  2  0
 20 23  1  0
 22 24  1  0
M  END
