
     RDKit          3D

 19 21  0  0  0  0  0  0  0  0999 V2000
   45.9251   -9.1849   26.3549 O   0  0  0  0  0  0  0  0  0  0  0  0
   45.8367   -6.6704   26.2115 O   0  0  0  0  0  0  0  0  0  0  0  0
   47.5524  -14.4437   25.4635 O   0  0  0  0  0  0  0  0  0  0  0  0
   48.1217  -15.4366   24.4838 P   0  0  0  0  0  0  0  0  0  0  0  0
   47.0998   -9.1219   25.2827 C   0  0  0  0  0  0  0  0  0  0  0  0
   48.8930  -10.7173   22.7984 O   0  0  0  0  0  0  0  0  0  0  0  0
   47.8305  -10.5553   23.5817 C   0  0  0  0  0  0  0  0  0  0  0  0
   49.2617  -10.2426   25.4923 O   0  0  0  0  0  0  0  0  0  0  0  0
   48.2371  -11.8909   25.8751 O   0  0  0  0  0  0  0  0  0  0  0  0
   48.3364  -14.3424   23.2898 O   0  0  0  0  0  0  0  0  0  0  0  0
   47.0486   -7.6706   28.1305 O   0  0  0  0  0  0  0  0  0  0  0  0
   47.8885  -11.8305   22.9429 C   0  0  0  0  0  0  0  0  0  0  0  0
   47.2009  -16.4688   23.8842 O   0  0  0  0  0  0  0  0  0  0  0  0
   49.4691  -15.9847   25.0444 O   0  0  0  0  0  0  0  0  0  0  0  0
   45.8396   -7.8417   27.1845 P   0  0  0  0  0  0  0  0  0  0  0  0
   47.5655  -12.9760   25.0791 C   0  0  0  0  0  0  0  0  0  0  0  0
   47.9782  -10.4943   25.1241 C   0  0  0  0  0  0  0  0  0  0  0  0
   48.3938  -12.9778   23.7928 C   0  0  0  0  0  0  0  0  0  0  0  0
   44.5478   -7.7982   27.8801 O   0  0  0  0  0  0  0  0  0  0  0  0
  1  5  1  0
  1 15  1  0
  2 15  1  0
  3  4  1  0
  3 16  1  0
  4 10  1  0
  4 13  1  0
  4 14  2  0
  5 17  1  0
  6  7  1  0
  6 12  1  0
  7 12  1  0
  7 17  1  0
  8 17  1  0
  9 16  1  0
  9 17  1  0
 10 18  1  0
 11 15  1  0
 12 18  1  0
 15 19  2  0
 16 18  1  0
M  END
$$$$
