
     RDKit          3D

 16 15  0  0  0  0  0  0  0  0999 V2000
    1.5823   19.6799  -31.8189 C   0  0  0  0  0  0  0  0  0  0  0  0
    0.1021   26.7571  -30.8189 C   0  0  0  0  0  0  0  0  0  0  0  0
   -0.0712   21.2056  -30.7651 C   0  0  0  0  0  0  0  0  0  0  0  0
   -1.5559   23.2364  -31.2470 C   0  0  0  0  0  0  0  0  0  0  0  0
    0.3728   19.8359  -31.2437 C   0  0  0  0  0  0  0  0  0  0  0  0
   -2.8816   26.0147  -29.2866 O   0  0  0  0  0  0  0  0  0  0  0  0
   -1.0129   25.7109  -30.8058 C   0  0  1  0  0  0  0  0  0  0  0  0
    2.8232   17.0516  -34.3479 C   0  0  0  0  0  0  0  0  0  0  0  0
   -0.6150   18.7247  -31.0057 C   0  0  0  0  0  0  0  0  0  0  0  0
   -0.9238   25.3580  -28.3802 O   0  0  0  0  0  0  0  0  0  0  0  0
   -0.4675   24.3186  -31.1744 C   0  0  0  0  0  0  0  0  0  0  0  0
   -1.7019   25.7113  -29.4252 C   0  0  0  0  0  0  0  0  0  0  0  0
    2.1616   18.3229  -33.8392 C   0  0  0  0  0  0  0  0  0  0  0  0
   -1.0347   21.8830  -31.7455 C   0  0  0  0  0  0  0  0  0  0  0  0
   -1.9462   26.1036  -31.8206 O   0  0  0  0  0  0  0  0  0  0  0  0
    2.2125   18.4075  -32.3141 C   0  0  0  0  0  0  0  0  0  0  0  0
  1  5  2  3
  1 16  1  0
  7  2  1  1
  3  5  1  0
  3 14  1  0
  4 11  1  0
  4 14  1  0
  5  9  1  0
  6 12  2  0
  7 11  1  0
  7 12  1  0
  7 15  1  0
  8 13  1  0
 10 12  1  0
 13 16  1  0
M  END
$$$$
