
     RDKit          3D

 23 25  0  0  0  0  0  0  0  0999 V2000
   22.6171   12.9739  -11.9369 O   0  0  0  0  0  0  0  0  0  0  0  0
   20.8807   11.3816   -9.2830 C   0  0  0  0  0  0  0  0  0  0  0  0
   22.3929    9.1743  -14.7920 C   0  0  0  0  0  0  0  0  0  0  0  0
   22.0928   12.6397   -7.5280 C   0  0  0  0  0  0  0  0  0  0  0  0
   21.3695   12.5605   -6.3222 O   0  0  0  0  0  0  0  0  0  0  0  0
   19.5550   11.3752   -9.9516 C   0  0  0  0  0  0  0  0  0  0  0  0
   24.2636    9.0134  -13.3282 C   0  0  0  0  0  0  0  0  0  0  0  0
   21.9166   13.5075   -9.7757 N   0  0  0  0  0  0  0  0  0  0  0  0
   21.9425   11.2290  -10.3968 C   0  0  0  0  0  0  0  0  0  0  0  0
   19.7806   10.9176  -11.6917 S   0  0  0  0  0  0  0  0  0  0  0  0
   21.2104   12.7204   -8.7260 C   0  0  0  0  0  0  0  0  0  0  0  0
   22.2293    9.7666  -12.4750 C   0  0  0  0  0  0  0  0  0  0  0  0
   24.5248    8.3806  -15.5754 N   0  0  0  0  0  0  0  0  0  0  0  0
   22.1400   12.6162  -10.9076 C   0  0  0  0  0  0  0  0  0  0  0  0
   26.6264    8.9529  -18.4815 C   0  0  0  0  0  0  0  0  0  0  0  0
   23.5376    9.4558  -12.2686 C   0  0  0  0  0  0  0  0  0  0  0  0
   23.7253    8.8627  -14.5645 C   0  0  0  0  0  0  0  0  0  0  0  0
   25.1942    9.1282  -16.4123 C   0  0  0  0  0  0  0  0  0  0  0  0
   26.1104    8.2948  -17.2346 C   0  0  0  0  0  0  0  0  0  0  0  0
   21.6477    9.6243  -13.7314 C   0  0  0  0  0  0  0  0  0  0  0  0
   20.9619   10.2663   -8.2895 C   0  0  0  0  0  0  0  0  0  0  0  0
   25.1902   10.3152  -16.5344 O   0  0  0  0  0  0  0  0  0  0  0  0
   21.3828   10.2366  -11.3612 C   0  0  0  0  0  0  0  0  0  0  0  0
  1 14  2  0
  2  6  1  0
  2  9  1  0
  2 11  1  0
  2 21  1  0
  3 17  1  0
  3 20  2  0
  4  5  1  0
  4 11  1  0
  6 10  1  0
  7 16  1  0
  7 17  2  0
  8 11  1  0
  8 14  1  0
  9 14  1  0
  9 23  1  0
 10 23  1  0
 12 16  2  0
 12 20  1  0
 12 23  1  0
 13 17  1  0
 13 18  1  0
 15 19  1  0
 18 19  1  0
 18 22  2  0
M  END
$$$$
