
     RDKit          3D

 23 26  0  0  0  0  0  0  0  0999 V2000
   24.5504    8.2475  -15.9264 C   0  0  0  0  0  0  0  0  0  0  0  0
   23.9270    9.7301  -14.0794 C   0  0  0  0  0  0  0  0  0  0  0  0
   22.3108   10.9478  -12.8714 C   0  0  0  0  0  0  0  0  0  0  0  0
   21.9406   13.0058   -9.1961 N   0  0  0  0  0  0  0  0  0  0  0  0
   24.9317    9.5202  -15.2379 C   0  0  0  0  0  0  0  0  0  0  0  0
   21.0490   12.7974  -10.2672 C   0  0  0  0  0  0  0  0  0  0  0  0
   23.0720   10.8067  -13.9973 C   0  0  0  0  0  0  0  0  0  0  0  0
   20.5677   11.3523  -10.5439 C   0  0  0  0  0  0  0  0  0  0  0  0
   21.5728   13.1474  -11.5986 C   0  0  0  0  0  0  0  0  0  0  0  0
   21.4584   10.1239  -10.6266 O   0  0  0  0  0  0  0  0  0  0  0  0
   25.3494    6.6733  -17.4708 O   0  0  0  0  0  0  0  0  0  0  0  0
   23.1551    8.9922  -11.9146 C   0  0  0  0  0  0  0  0  0  0  0  0
   20.8398   11.1314   -8.0936 C   0  0  0  0  0  0  0  0  0  0  0  0
   25.5111    7.8045  -17.0119 C   0  0  0  0  0  0  0  0  0  0  0  0
   24.0024    8.8028  -13.0229 C   0  0  0  0  0  0  0  0  0  0  0  0
   22.9014   13.3645  -11.8201 O   0  0  0  0  0  0  0  0  0  0  0  0
   22.3738   10.0016  -11.8714 C   0  0  0  0  0  0  0  0  0  0  0  0
   19.8400   11.4658  -11.9695 C   0  0  0  0  0  0  0  0  0  0  0  0
   26.3446    8.6026  -17.3878 O   0  0  0  0  0  0  0  0  0  0  0  0
   22.0063   12.8168   -6.8655 N   0  0  0  0  0  0  0  0  0  0  0  0
   21.1095   11.8060  -12.5335 C   0  0  0  0  0  0  0  0  0  0  0  0
   21.6516   12.3518   -8.0714 C   0  0  0  0  0  0  0  0  0  0  0  0
   19.9461   10.8886   -9.2788 C   0  0  0  0  0  0  0  0  0  0  0  0
  1  5  1  0
  1 14  1  0
  2  5  1  0
  2  7  2  0
  2 15  1  0
  3  7  1  0
  3 17  2  0
  3 21  1  0
  4  6  1  0
  4 22  2  0
  6  8  1  0
  6  9  1  0
  8 10  1  0
  8 18  1  0
  8 23  1  0
  9 16  1  0
  9 21  1  0
 10 17  1  0
 11 14  1  0
 12 15  2  0
 12 17  1  0
 13 22  1  0
 13 23  1  0
 14 19  2  0
 18 21  1  0
 20 22  1  0
M  END
$$$$
