
     RDKit          3D

 20 21  0  0  0  0  0  0  0  0999 V2000
   22.2816   13.5043   -9.7312 C   0  0  0  0  0  0  0  0  0  0  0  0
   25.6877    8.6239  -16.2415 C   0  0  0  0  0  0  0  0  0  0  0  0
   22.6340    8.3048  -13.9114 C   0  0  0  0  0  0  0  0  0  0  0  0
   25.8427    8.9650  -17.4065 O   0  0  0  0  0  0  0  0  0  0  0  0
   21.6032   10.0540  -12.4400 C   0  0  0  0  0  0  0  0  0  0  0  0
   21.9686   12.7514   -6.9110 O   0  0  0  0  0  0  0  0  0  0  0  0
   20.2278   12.1619   -9.9578 N   0  0  0  0  0  0  0  0  0  0  0  0
   20.8336   10.8715   -7.6242 C   0  0  0  0  0  0  0  0  0  0  0  0
   21.2817   10.1640   -8.9950 C   0  0  0  0  0  0  0  0  0  0  0  0
   21.3305   12.2389   -7.7586 C   0  0  0  0  0  0  0  0  0  0  0  0
   19.1762   12.8137  -10.6762 C   0  0  0  0  0  0  0  0  0  0  0  0
   21.0803   10.3866  -11.4392 C   0  0  0  0  0  0  0  0  0  0  0  0
   22.4652    9.6212  -13.5039 C   0  0  0  0  0  0  0  0  0  0  0  0
   23.6817    7.9895  -14.7904 C   0  0  0  0  0  0  0  0  0  0  0  0
   24.3140   10.3174  -14.9678 C   0  0  0  0  0  0  0  0  0  0  0  0
   23.3015   10.6153  -14.0936 C   0  0  0  0  0  0  0  0  0  0  0  0
   24.4994    9.0220  -15.3105 C   0  0  0  0  0  0  0  0  0  0  0  0
   21.0576   13.0000   -9.0087 C   0  0  0  0  0  0  0  0  0  0  0  0
   20.4780   10.7296  -10.1777 C   0  0  0  0  0  0  0  0  0  0  0  0
   26.5172    7.8885  -15.7501 O   0  0  0  0  0  0  0  0  0  0  0  0
  1 18  1  0
  2  4  1  0
  2 17  1  0
  2 20  2  0
  3 13  1  0
  3 14  2  0
  5 12  3  0
  5 13  1  0
  6 10  2  0
  7 11  1  0
  7 18  1  0
  7 19  1  0
  8  9  1  0
  8 10  1  0
  9 19  1  0
 10 18  1  0
 12 19  1  0
 13 16  2  0
 14 17  1  0
 15 16  1  0
 15 17  2  0
M  END
$$$$
