
     RDKit          3D

 23 25  0  0  0  0  0  0  0  0999 V2000
   23.3698    9.1628  -14.6575 C   0  0  0  0  0  0  0  0  0  0  0  0
   23.6852    7.8446  -15.3464 C   0  0  0  0  0  0  0  0  0  0  0  0
   22.2635    9.7394  -12.8979 C   0  0  0  0  0  0  0  0  0  0  0  0
   22.0092   12.7947   -6.8219 O   0  0  0  0  0  0  0  0  0  0  0  0
   25.7449    8.8504  -16.4580 C   0  0  0  0  0  0  0  0  0  0  0  0
   21.9699   12.2074  -11.6427 C   0  0  0  0  0  0  0  0  0  0  0  0
   22.0205    9.2399  -14.2258 C   0  0  0  0  0  0  0  0  0  0  0  0
   26.1883    8.7691  -17.8665 C   0  0  0  0  0  0  0  0  0  0  0  0
   21.6575   11.1046  -12.5983 N   0  0  0  0  0  0  0  0  0  0  0  0
   25.2312   10.2726  -16.0155 C   0  0  0  0  0  0  0  0  0  0  0  0
   21.1375   12.4896  -10.3343 C   0  0  0  0  0  0  0  0  0  0  0  0
   21.8156   13.3286   -9.2217 C   0  0  0  0  0  0  0  0  0  0  0  0
   25.0578    7.6325  -15.8552 C   0  0  0  0  0  0  0  0  0  0  0  0
   20.6372   10.4070   -7.4675 O   0  0  0  0  0  0  0  0  0  0  0  0
   19.5640   10.6310  -10.3456 C   0  0  0  0  0  0  0  0  0  0  0  0
   19.0046   11.7181  -11.3157 C   0  0  0  0  0  0  0  0  0  0  0  0
   22.9004   13.0232  -11.9030 O   0  0  0  0  0  0  0  0  0  0  0  0
   21.6546   12.4813   -8.0034 C   0  0  0  0  0  0  0  0  0  0  0  0
   27.1907    7.8394  -18.0861 O   0  0  0  0  0  0  0  0  0  0  0  0
   21.0033   11.2774   -8.3306 C   0  0  0  0  0  0  0  0  0  0  0  0
   23.7104   10.3073  -15.6846 C   0  0  0  0  0  0  0  0  0  0  0  0
   19.8076   13.0087  -10.8829 C   0  0  0  0  0  0  0  0  0  0  0  0
   20.8302   11.1967   -9.7490 N   0  0  0  0  0  0  0  0  0  0  0  0
  1  2  1  0
  1  7  1  0
  1 21  1  0
  2 13  1  0
  3  7  1  0
  3  9  1  0
  4 18  2  0
  5  8  1  0
  5 10  1  0
  5 13  1  0
  6  9  1  0
  6 11  1  0
  6 17  2  0
  8 19  1  0
 10 21  1  0
 11 12  1  0
 11 22  1  0
 11 23  1  0
 12 18  1  0
 14 20  2  0
 15 16  1  0
 15 23  1  0
 16 22  1  0
 18 20  1  0
 20 23  1  0
M  END
$$$$
