
     RDKit          3D

 27 31  0  0  0  0  0  0  0  0999 V2000
   20.1715   12.1753  -11.4149 C   0  0  0  0  0  0  0  0  0  0  0  0
   25.7340    9.3982  -17.3996 C   0  0  0  0  0  0  0  0  0  0  0  0
   21.3356   12.7126   -8.5268 C   0  0  0  0  0  0  0  0  0  0  0  0
   20.7362   10.6240   -9.5742 C   0  0  0  0  0  0  0  0  0  0  0  0
   22.8947   13.3190  -10.1631 O   0  0  0  0  0  0  0  0  0  0  0  0
   22.4067    8.4389  -12.5581 C   0  0  0  0  0  0  0  0  0  0  0  0
   22.6760   11.2504  -12.7076 C   0  0  0  0  0  0  0  0  0  0  0  0
   25.4947    8.1858  -16.4831 C   0  0  0  0  0  0  0  0  0  0  0  0
   19.1998   10.6799   -9.7485 C   0  0  0  0  0  0  0  0  0  0  0  0
   20.6291   11.3075   -8.2867 N   0  0  0  0  0  0  0  0  0  0  0  0
   24.7703   10.1859  -15.4137 C   0  0  0  0  0  0  0  0  0  0  0  0
   21.3137   11.5016  -10.7172 C   0  0  0  0  0  0  0  0  0  0  0  0
   25.7356   10.5895  -16.4646 C   0  0  0  0  0  0  0  0  0  0  0  0
   18.8804   11.7806  -10.7507 C   0  0  0  0  0  0  0  0  0  0  0  0
   21.9156   12.6619   -7.3696 C   0  0  0  0  0  0  0  0  0  0  0  0
   21.9865   12.5650   -9.8667 C   0  0  0  0  0  0  0  0  0  0  0  0
   21.7809    9.2106  -11.6412 C   0  0  0  0  0  0  0  0  0  0  0  0
   23.2374    9.0168  -13.5559 C   0  0  0  0  0  0  0  0  0  0  0  0
   23.8755    8.2402  -14.5019 C   0  0  0  0  0  0  0  0  0  0  0  0
   24.9781    6.9988  -17.2543 C   0  0  0  0  0  0  0  0  0  0  0  0
   21.9345   10.6503  -11.7169 C   0  0  0  0  0  0  0  0  0  0  0  0
   26.8876    7.7813  -15.9158 C   0  0  0  0  0  0  0  0  0  0  0  0
   22.7417   12.6031  -12.7472 O   0  0  0  0  0  0  0  0  0  0  0  0
   24.1385   10.9457  -14.5838 N   0  0  0  0  0  0  0  0  0  0  0  0
   22.4936   12.7583   -6.3819 N   0  0  0  0  0  0  0  0  0  0  0  0
   23.3406   10.4346  -13.6279 C   0  0  0  0  0  0  0  0  0  0  0  0
   24.6496    8.8065  -15.4149 C   0  0  0  0  0  0  0  0  0  0  0  0
  1 12  1  0
  1 14  1  0
  2  8  1  0
  2 13  1  0
  3 10  1  0
  3 15  1  0
  3 16  1  0
  4  9  1  0
  4 10  1  0
  4 12  1  0
  5 16  2  0
  6 17  2  0
  6 18  1  0
  7 21  2  0
  7 23  1  0
  7 26  1  0
  8 20  1  0
  8 22  1  0
  8 27  1  0
  9 14  1  0
 11 13  1  0
 11 24  1  0
 11 27  2  0
 12 16  1  0
 12 21  1  0
 15 25  3  0
 17 21  1  0
 18 19  2  0
 18 26  1  0
 19 27  1  0
 24 26  2  0
M  END
$$$$
