
     RDKit          3D

 26 30  0  0  0  0  0  0  0  0999 V2000
   21.1439   10.9261   -7.6112 C   0  0  0  0  0  0  0  0  0  0  0  0
   24.2807    8.2411  -15.2503 C   0  0  0  0  0  0  0  0  0  0  0  0
   23.0352   12.5686   -9.6762 O   0  0  0  0  0  0  0  0  0  0  0  0
   21.6259   12.3322   -7.7465 C   0  0  0  0  0  0  0  0  0  0  0  0
   22.7116   12.1337  -12.9622 C   0  0  0  0  0  0  0  0  0  0  0  0
   20.8438   11.4180   -9.9365 C   0  0  0  0  0  0  0  0  0  0  0  0
   23.3931   11.5790  -14.0317 N   0  0  0  0  0  0  0  0  0  0  0  0
   21.5967   10.1254  -12.5707 C   0  0  0  0  0  0  0  0  0  0  0  0
   21.5734   10.0847  -10.0526 C   0  0  0  0  0  0  0  0  0  0  0  0
   20.9044   12.0238  -11.3105 C   0  0  0  0  0  0  0  0  0  0  0  0
   25.2091   10.3771  -15.8665 C   0  0  0  0  0  0  0  0  0  0  0  0
   23.4075   10.2544  -14.2211 C   0  0  0  0  0  0  0  0  0  0  0  0
   22.8723   13.3176  -12.6086 O   0  0  0  0  0  0  0  0  0  0  0  0
   21.8038   11.3618  -12.3547 N   0  0  0  0  0  0  0  0  0  0  0  0
   23.3261    7.4706  -14.5876 C   0  0  0  0  0  0  0  0  0  0  0  0
   26.0942    9.7218  -16.7311 C   0  0  0  0  0  0  0  0  0  0  0  0
   19.9514   10.8925   -8.5664 C   0  0  0  0  0  0  0  0  0  0  0  0
   25.2304    7.5418  -16.0422 C   0  0  0  0  0  0  0  0  0  0  0  0
   26.0702    8.3221  -16.8286 C   0  0  0  0  0  0  0  0  0  0  0  0
   22.5088    9.4874  -13.5542 C   0  0  0  0  0  0  0  0  0  0  0  0
   22.4260    8.0811  -13.7234 C   0  0  0  0  0  0  0  0  0  0  0  0
   21.6778   12.5073   -9.2350 C   0  0  0  0  0  0  0  0  0  0  0  0
   19.4932   11.9519  -11.7248 C   0  0  0  0  0  0  0  0  0  0  0  0
   21.2587    9.3605  -11.3191 C   0  0  0  0  0  0  0  0  0  0  0  0
   24.2924    9.6672  -15.1095 C   0  0  0  0  0  0  0  0  0  0  0  0
   21.8887   12.9576   -6.8992 O   0  0  0  0  0  0  0  0  0  0  0  0
  1  4  1  0
  1 17  1  0
  2 15  1  0
  2 18  2  0
  2 25  1  0
  3 22  1  0
  4 22  1  0
  4 26  2  0
  5  7  1  0
  5 13  2  0
  5 14  1  0
  6  9  1  0
  6 10  1  0
  6 17  1  0
  6 22  1  0
  7 12  1  0
  8 14  1  0
  8 20  1  0
  8 24  1  0
  9 24  1  0
 10 14  1  0
 10 23  1  0
 11 16  1  0
 11 25  2  0
 12 20  2  0
 12 25  1  0
 15 21  2  0
 16 19  2  0
 18 19  1  0
 20 21  1  0
M  END
$$$$
