
     RDKit          3D

  8  7  0  0  0  0  0  0  0  0999 V2000
    2.7479   -0.4532    1.1068 C   0  0  0  0  0  0  0  0  0  0  0  0
    0.4670   -0.3563    0.0310 C   0  0  0  0  0  0  0  0  0  0  0  0
   -0.3847    0.2996   -1.0659 C   0  0  0  0  0  0  0  0  0  0  0  0
    1.8983    0.1924    0.0159 C   0  0  0  0  0  0  0  0  0  0  0  0
   -2.6036    0.1144    0.0917 C   0  0  0  0  0  0  0  0  0  0  0  0
   -3.1062    1.4068    0.2050 O   0  0  0  0  0  0  0  0  0  0  0  0
   -1.8072   -0.2727   -1.1165 C   0  0  0  0  0  0  0  0  0  0  0  0
   -2.7967   -0.7200    1.0161 O   0  0  0  0  0  0  0  0  0  0  0  0
  1  4  1  0
  2  3  1  0
  2  4  1  0
  3  7  1  0
  5  6  1  0
  5  7  1  0
  5  8  2  0
M  END
