
     RDKit          3D

  9  8  0  0  0  0  0  0  0  0999 V2000
   -2.2919   -0.9867    0.4574 C   0  0  0  0  0  0  0  0  0  0  0  0
   -2.0665    1.3289   -0.5396 C   0  0  0  0  0  0  0  0  0  0  0  0
    4.2430   -0.0333    0.1976 O   0  0  0  0  0  0  0  0  0  0  0  0
   -0.0697    0.1930    0.4835 C   0  0  0  0  0  0  0  0  0  0  0  0
    2.5222   -1.3344   -1.5191 N   0  0  0  0  0  0  0  0  0  0  0  0
    0.5568   -0.3257   -0.5820 C   0  0  0  0  0  0  0  0  0  0  0  0
   -1.5694    0.3632    0.5426 C   0  0  0  0  0  0  0  0  0  0  0  0
    2.0252   -0.5089   -0.6520 C   0  0  0  0  0  0  0  0  0  0  0  0
    2.9154    0.2382    0.1892 N   0  0  0  0  0  0  0  0  0  0  0  0
  1  7  1  0
  2  7  1  0
  3  9  1  0
  4  6  2  3
  4  7  1  0
  5  8  2  0
  6  8  1  0
  8  9  1  0
M  END
