
     RDKit          3D

 34 35  0  0  0  0  0  0  0  0999 V2000
    0.4882    6.0400   24.0018 C   0  0  0  0  0  0  0  0  0  0  0  0
   13.0755    1.9298   23.4768 C   0  0  0  0  0  0  0  0  0  0  0  0
    1.6523    4.4680   25.4957 C   0  0  0  0  0  0  0  0  0  0  0  0
   13.2154    1.6977   21.1879 O   0  0  0  0  0  0  0  0  0  0  0  0
    8.8787    1.8456   26.8209 C   0  0  0  0  0  0  0  0  0  0  0  0
   14.7815   -0.1307   23.2830 Cl  0  0  0  0  0  0  0  0  0  0  0  0
    9.2652    2.1035   24.4850 C   0  0  0  0  0  0  0  0  0  0  0  0
    2.8240    3.5486   25.2858 C   0  0  0  0  0  0  0  0  0  0  0  0
    8.3912    2.0312   25.5465 C   0  0  0  0  0  0  0  0  0  0  0  0
    7.9669    2.0092   27.8596 O   0  0  0  0  0  0  0  0  0  0  0  0
   10.2776    1.7619   27.0825 C   0  0  0  0  0  0  0  0  0  0  0  0
    5.0804    2.6899   26.8419 C   0  0  0  0  0  0  0  0  0  0  0  0
   -1.4576    4.7059   24.0660 O   0  0  0  0  0  0  0  0  0  0  0  0
   11.1974    1.8362   26.0110 C   0  0  0  0  0  0  0  0  0  0  0  0
    0.0100    4.2467   22.3971 N   0  0  0  0  0  0  0  0  0  0  0  0
    6.5444    3.7320   23.3405 C   0  0  0  0  0  0  0  0  0  0  0  0
    6.9320    2.1542   25.2984 C   0  0  0  0  0  0  0  0  0  0  0  0
   10.6695    1.9475   24.7363 C   0  0  0  0  0  0  0  0  0  0  0  0
   11.8290    3.8124   23.4867 O   0  0  0  0  0  0  0  0  0  0  0  0
    5.3838    3.8983   25.9089 C   0  0  0  0  0  0  0  0  0  0  0  0
    4.1447    4.2298   25.0081 C   0  0  0  0  0  0  0  0  0  0  0  0
    2.9670    6.3383   24.3374 C   0  0  0  0  0  0  0  0  0  0  0  0
    5.8545    5.0799   26.7951 C   0  0  0  0  0  0  0  0  0  0  0  0
    4.1104    5.3903   24.0466 C   0  0  0  0  0  0  0  0  0  0  0  0
    1.7158    5.6163   24.6456 N   0  0  0  0  0  0  0  0  0  0  0  0
   14.4017    3.3205   22.1207 N   0  0  0  0  0  0  0  0  0  0  0  0
   13.0944    0.3956   23.5066 C   0  0  0  0  0  0  0  0  0  0  0  0
   -0.3910    4.9229   23.5051 C   0  0  0  0  0  0  0  0  0  0  0  0
    6.6482    1.1511   24.2157 O   0  0  0  0  0  0  0  0  0  0  0  0
    6.4390    3.3203   24.8369 C   0  0  0  0  0  0  0  0  0  0  0  0
   11.6886    2.3506   23.6669 C   0  0  0  0  0  0  0  0  0  0  0  0
   12.2793   -0.4579   23.4306 O   0  0  0  0  0  0  0  0  0  0  0  0
   14.0099    2.4504   24.5451 C   0  0  0  0  0  0  0  0  0  0  0  0
   13.5246    2.3013   22.1801 C   0  0  0  0  0  0  0  0  0  0  0  0
  1 25  1  0
  1 28  1  0
  2 27  1  0
  2 31  1  0
  2 33  1  0
  2 34  1  0
  3  8  1  0
  3 25  1  0
  4 34  2  0
  5  9  2  0
  5 10  1  0
  5 11  1  0
  6 27  1  0
  7  9  1  0
  7 18  2  0
  8 21  1  0
  9 17  1  0
 11 14  2  0
 12 20  1  0
 13 28  2  0
 14 18  1  0
 15 28  1  0
 16 30  1  0
 17 29  1  0
 17 30  1  0
 18 31  1  0
 19 31  1  0
 20 21  1  0
 20 23  1  0
 20 30  1  0
 21 24  1  0
 22 24  1  0
 22 25  1  0
 26 34  1  0
 27 32  2  0
M  END
$$$$
