
     RDKit          3D

 29 30  0  0  0  0  0  0  0  0999 V2000
    9.0710    2.2592   25.0972 C   0  0  0  0  0  0  0  0  0  0  0  0
    7.8065    2.8877   25.7183 C   0  0  0  0  0  0  0  0  0  0  0  0
    8.9757    1.2902   24.1910 C   0  0  0  0  0  0  0  0  0  0  0  0
    5.6340    3.6485   24.7286 C   0  0  0  0  0  0  0  0  0  0  0  0
    1.3013    7.5943   24.2035 C   0  0  0  0  0  0  0  0  0  0  0  0
   12.7441    0.8370   23.1929 C   0  0  0  0  0  0  0  0  0  0  0  0
   13.5579    3.0270   22.3193 N   0  0  0  0  0  0  0  0  0  0  0  0
    1.0850    6.2898   23.7801 N   0  0  0  0  0  0  0  0  0  0  0  0
   11.4470    1.3452   23.9740 C   0  0  0  0  0  0  0  0  0  0  0  0
    1.5693    5.2911   24.7015 C   0  0  0  0  0  0  0  0  0  0  0  0
    4.6798    2.1148   26.2276 F   0  0  0  0  0  0  0  0  0  0  0  0
    6.4940    5.8406   24.2044 F   0  0  0  0  0  0  0  0  0  0  0  0
    3.2733    3.9385   25.5325 C   0  0  0  0  0  0  0  0  0  0  0  0
    6.7572    2.9988   24.7343 N   0  0  0  0  0  0  0  0  0  0  0  0
   10.3985    2.8480   25.4813 C   0  0  0  0  0  0  0  0  0  0  0  0
   10.4772    3.8858   26.5039 O   0  0  0  0  0  0  0  0  0  0  0  0
   11.5618    2.3733   24.8871 C   0  0  0  0  0  0  0  0  0  0  0  0
    4.4641    3.2212   25.4495 C   0  0  0  0  0  0  0  0  0  0  0  0
    5.5323    4.9726   23.9439 C   0  0  0  0  0  0  0  0  0  0  0  0
    3.1214    5.0413   24.7460 C   0  0  0  0  0  0  0  0  0  0  0  0
    9.9562   -0.2918   22.7298 C   0  0  0  0  0  0  0  0  0  0  0  0
   12.6205    1.6853   20.9059 O   0  0  0  0  0  0  0  0  0  0  0  0
   12.9845    1.8468   22.0607 C   0  0  0  0  0  0  0  0  0  0  0  0
    7.8646    3.7941   26.6344 O   0  0  0  0  0  0  0  0  0  0  0  0
   13.7115    0.4761   24.1793 N   0  0  0  0  0  0  0  0  0  0  0  0
   -0.2419    5.8372   23.5958 C   0  0  0  0  0  0  0  0  0  0  0  0
   10.1561    0.7634   23.6106 C   0  0  0  0  0  0  0  0  0  0  0  0
    5.7939    4.4202   22.7568 F   0  0  0  0  0  0  0  0  0  0  0  0
    4.2282    5.7013   24.0973 C   0  0  0  0  0  0  0  0  0  0  0  0
  1  2  1  0
  1  3  4  0
  1 15  4  0
  2 14  1  0
  2 24  2  0
  3 27  4  0
  4 14  1  0
  4 18  4  0
  4 19  4  0
  5  8  1  0
  6  9  1  0
  6 23  1  0
  6 25  1  0
  7 23  1  0
  8 10  1  0
  8 26  1  0
  9 17  4  0
  9 27  4  0
 10 20  1  0
 11 18  1  0
 12 19  1  0
 13 18  4  0
 13 20  4  0
 15 16  1  0
 15 17  4  0
 19 28  1  0
 19 29  4  0
 20 29  4  0
 21 27  1  0
 22 23  2  0
M  END
$$$$
