
     RDKit          3D

 25 27  0  0  0  0  0  0  0  0999 V2000
    7.0949    3.3909   26.5815 C   0  0  0  0  0  0  0  0  0  0  0  0
    8.6398    3.2494   26.5462 C   0  0  0  0  0  0  0  0  0  0  0  0
   12.8753    2.5584   23.2439 C   0  0  0  0  0  0  0  0  0  0  0  0
    2.7127    6.7163   24.0161 C   0  0  0  0  0  0  0  0  0  0  0  0
    4.7229    5.2718   24.4210 C   0  0  0  0  0  0  0  0  0  0  0  0
    6.8984    3.4447   24.1861 C   0  0  0  0  0  0  0  0  0  0  0  0
   14.5985    1.3535   22.4294 C   0  0  0  0  0  0  0  0  0  0  0  0
   12.2930    3.9281   23.4240 C   0  0  0  0  0  0  0  0  0  0  0  0
   12.8686    0.3130   23.6128 C   0  0  0  0  0  0  0  0  0  0  0  0
   11.2731    3.8653   22.4806 O   0  0  0  0  0  0  0  0  0  0  0  0
   10.3328    0.4760   24.6035 O   0  0  0  0  0  0  0  0  0  0  0  0
   14.0493    0.2211   22.9389 C   0  0  0  0  0  0  0  0  0  0  0  0
   12.2536    1.4971   23.7736 C   0  0  0  0  0  0  0  0  0  0  0  0
    0.4669    5.7600   24.0697 C   0  0  0  0  0  0  0  0  0  0  0  0
    2.3875    4.3694   24.4306 C   0  0  0  0  0  0  0  0  0  0  0  0
   10.9948    1.5136   24.5173 C   0  0  0  0  0  0  0  0  0  0  0  0
   14.0284    2.5775   22.5269 N   0  0  0  0  0  0  0  0  0  0  0  0
   10.5307    2.5883   25.1116 N   0  0  0  0  0  0  0  0  0  0  0  0
    6.6150    4.1432   25.4485 N   0  0  0  0  0  0  0  0  0  0  0  0
    3.2379    5.4537   24.2813 C   0  0  0  0  0  0  0  0  0  0  0  0
    8.3172    3.3134   24.0260 C   0  0  0  0  0  0  0  0  0  0  0  0
    1.3296    6.8446   23.9199 C   0  0  0  0  0  0  0  0  0  0  0  0
    9.0403    2.5887   25.2063 C   0  0  0  0  0  0  0  0  0  0  0  0
    0.9544    4.4993   24.3352 C   0  0  0  0  0  0  0  0  0  0  0  0
    5.2430    4.3526   25.4407 C   0  0  0  0  0  0  0  0  0  0  0  0
  1  2  1  0
  1 19  1  0
  2 23  1  0
  3  8  1  0
  3 13  1  0
  3 17  2  0
  4 20  2  0
  4 22  1  0
  5 20  1  0
  5 25  1  0
  6 19  1  0
  6 21  1  0
  7 12  2  0
  7 17  1  0
  8 10  1  0
  9 12  1  0
  9 13  2  0
 11 16  2  0
 13 16  1  0
 14 22  2  0
 14 24  1  0
 15 20  1  0
 15 24  2  0
 16 18  1  0
 18 23  1  0
 19 25  1  0
 21 23  1  0
M  END
$$$$
