
     RDKit          3D

 25 26  0  0  0  0  0  0  0  0999 V2000
    5.4839    0.9573    0.6769 C   0  0  0  0  0  0  0  0  0  0  0  0
   -7.2287   -1.4277    1.4430 N   0  0  0  0  0  0  0  0  0  0  0  0
   -5.5174   -0.4428   -0.1931 N   0  0  0  0  0  0  0  0  0  0  0  0
   -7.4003    0.7228   -1.4846 C   0  0  0  0  0  0  0  0  0  0  0  0
   -4.0963   -0.7459    0.0077 C   0  0  0  0  0  0  0  0  0  0  0  0
   -3.3625    0.4767    0.5652 C   0  0  0  0  0  0  0  0  0  0  0  0
    1.1077    0.6589    0.9659 C   0  0  0  0  0  0  0  0  0  0  0  0
   -5.1231    0.7492   -2.1718 O   0  0  0  0  0  0  0  0  0  0  0  0
    7.8025    2.1778    1.4661 Cl  0  0  0  0  0  0  0  0  0  0  0  0
   -1.9113    0.1683    0.7765 C   0  0  0  0  0  0  0  0  0  0  0  0
    3.2532    0.0092    0.0147 C   0  0  0  0  0  0  0  0  0  0  0  0
    2.5849   -0.4402   -1.1377 C   0  0  0  0  0  0  0  0  0  0  0  0
    2.4989    0.5644    1.0636 C   0  0  0  0  0  0  0  0  0  0  0  0
    1.1941   -0.3430   -1.2348 C   0  0  0  0  0  0  0  0  0  0  0  0
    7.5305   -0.2871    0.3132 C   0  0  0  0  0  0  0  0  0  0  0  0
   -1.5315   -0.2774    1.8931 O   0  0  0  0  0  0  0  0  0  0  0  0
   -6.4565   -0.9833    0.7045 C   0  0  0  0  0  0  0  0  0  0  0  0
    4.7314   -0.0928    0.1181 C   0  0  0  0  0  0  0  0  0  0  0  0
    5.4022   -1.2415   -0.3418 C   0  0  0  0  0  0  0  0  0  0  0  0
    6.7946   -1.3368   -0.2436 C   0  0  0  0  0  0  0  0  0  0  0  0
   -5.9568    0.3552   -1.3114 C   0  0  0  0  0  0  0  0  0  0  0  0
   -0.9859    0.2959   -0.3146 N   0  0  0  0  0  0  0  0  0  0  0  0
    6.8762    0.8591    0.7730 C   0  0  0  0  0  0  0  0  0  0  0  0
    7.6174   -2.7768   -0.8152 Cl  0  0  0  0  0  0  0  0  0  0  0  0
    0.4415    0.1884   -0.1786 C   0  0  0  0  0  0  0  0  0  0  0  0
  1 18  2  0
  1 23  1  0
  2 17  3  0
  3  5  1  0
  3 17  1  0
  3 21  1  0
  4 21  1  0
  5  6  1  0
  6 10  1  0
  7 13  2  0
  7 25  1  0
  8 21  2  0
  9 23  1  0
 10 16  2  0
 10 22  1  0
 11 12  2  0
 11 13  1  0
 11 18  1  0
 12 14  1  0
 14 25  2  0
 15 20  1  0
 15 23  2  0
 18 19  1  0
 19 20  2  0
 20 24  1  0
 22 25  1  0
M  END
