
     RDKit          3D

 26 27  0  0  0  0  0  0  0  0999 V2000
    1.8684    0.0445   -0.6533 N   0  0  0  0  0  0  0  0  0  0  0  0
   -1.9064    0.5715   -1.1134 C   0  0  0  0  0  0  0  0  0  0  0  0
   -0.6057   -0.0286   -0.5527 C   0  0  0  0  0  0  0  0  0  0  0  0
    6.8723    0.2039   -0.1987 N   0  0  0  0  0  0  0  0  0  0  0  0
   -7.1551    0.0586    1.8813 C   0  0  0  0  0  0  0  0  0  0  0  0
   -3.3575   -1.5279   -0.5722 C   0  0  0  0  0  0  0  0  0  0  0  0
   -3.6361   -2.0671   -1.9855 C   0  0  0  0  0  0  0  0  0  0  0  0
   -5.7736    0.3917   -0.2480 C   0  0  0  0  0  0  0  0  0  0  0  0
    6.3293   -0.8558    1.8373 N   0  0  0  0  0  0  0  0  0  0  0  0
    3.4940   -0.2630    1.1818 C   0  0  0  0  0  0  0  0  0  0  0  0
   -3.1875    0.0165   -0.4357 C   0  0  2  0  0  0  0  0  0  0  0  0
   -4.5693    0.8684   -2.2624 O   0  0  0  0  0  0  0  0  0  0  0  0
    4.5661   -0.2144    0.1815 N   0  0  0  0  0  0  0  0  0  0  0  0
    8.2942    0.2643    0.1699 C   0  0  0  0  0  0  0  0  0  0  0  0
    8.6482    1.6283    0.5530 N   0  0  0  0  0  0  0  0  0  0  0  0
   -5.8040    0.4957    1.2873 C   0  0  0  0  0  0  0  0  0  0  0  0
    0.6239    0.7138   -1.0939 C   0  0  0  0  0  0  0  0  0  0  0  0
    5.9481   -0.2578    0.5911 C   0  0  0  0  0  0  0  0  0  0  0  0
    2.9598    0.3039   -1.6134 C   0  0  0  0  0  0  0  0  0  0  0  0
   -4.4350    0.8558   -0.8623 C   0  0  1  0  0  0  0  0  0  0  0  0
   -2.5342   -1.8904   -2.8326 O   0  0  0  0  0  0  0  0  0  0  0  0
    2.2713    0.5138    0.6892 C   0  0  0  0  0  0  0  0  0  0  0  0
    8.6128   -0.6462    1.2755 N   0  0  0  0  0  0  0  0  0  0  0  0
   -8.2297    1.0097    1.5969 N   0  0  0  0  0  0  0  0  0  0  0  0
    7.7110   -1.1170    2.0800 C   0  0  0  0  0  0  0  0  0  0  0  0
    4.2137   -0.4794   -1.2192 C   0  0  0  0  0  0  0  0  0  0  0  0
  1 17  1  0
  1 19  1  0
  1 22  1  0
  2  3  1  0
 11  2  1  6
  3 17  1  0
  4 14  1  0
  4 18  2  0
  5 16  1  0
  5 24  1  0
  6  7  1  0
  6 11  1  0
  7 21  1  0
  8 16  1  0
  8 20  1  0
  9 18  1  0
  9 25  1  0
 10 13  1  0
 10 22  1  0
 11 20  1  0
 20 12  1  6
 13 18  1  0
 13 26  1  0
 14 15  1  0
 14 23  1  0
 19 26  1  0
 23 25  2  0
M  END
