
     RDKit          3D

 28 30  0  0  0  0  0  0  0  0999 V2000
   -2.9820    1.4757   -0.1624 C   0  0  0  0  0  0  0  0  0  0  0  0
    5.5338    1.9794    1.5513 C   0  0  0  0  0  0  0  0  0  0  0  0
   -4.6503    2.2413   -1.6696 O   0  0  0  0  0  0  0  0  0  0  0  0
   -0.7586   -1.8105    2.1235 Cl  0  0  0  0  0  0  0  0  0  0  0  0
    0.9393   -1.7617   -1.0566 C   0  0  0  0  0  0  0  0  0  0  0  0
   -2.9795    0.1648   -0.6687 C   0  0  0  0  0  0  0  0  0  0  0  0
   -4.8083   -5.0389   -0.5239 O   0  0  0  0  0  0  0  0  0  0  0  0
    2.1296    0.2138   -0.5099 C   0  0  0  0  0  0  0  0  0  0  0  0
   -1.6256    0.7222    1.7065 C   0  0  0  0  0  0  0  0  0  0  0  0
    3.1485    0.8743    0.2671 N   0  0  0  0  0  0  0  0  0  0  0  0
    4.5133    1.1327    2.3269 C   0  0  0  0  0  0  0  0  0  0  0  0
    1.9111   -1.1217   -0.3575 N   0  0  0  0  0  0  0  0  0  0  0  0
   -2.2996    1.7421    1.0350 C   0  0  0  0  0  0  0  0  0  0  0  0
    3.5153    2.2722   -0.0079 C   0  0  0  0  0  0  0  0  0  0  0  0
    3.7583    0.1682    1.4058 C   0  0  0  0  0  0  0  0  0  0  0  0
   -0.9764   -1.6870   -2.6740 C   0  0  0  0  0  0  0  0  0  0  0  0
    5.0240    2.4661    0.1777 C   0  0  0  0  0  0  0  0  0  0  0  0
   -3.5940   -2.9665   -0.3543 C   0  0  0  0  0  0  0  0  0  0  0  0
    0.1305   -1.0444   -1.9429 C   0  0  0  0  0  0  0  0  0  0  0  0
    1.3687    0.9179   -1.3927 N   0  0  0  0  0  0  0  0  0  0  0  0
   -3.5736   -4.4344   -0.7968 C   0  0  0  0  0  0  0  0  0  0  0  0
   -2.0188   -2.1976   -2.0807 N   0  0  0  0  0  0  0  0  0  0  0  0
   -2.2749   -0.8673   -0.0182 C   0  0  0  0  0  0  0  0  0  0  0  0
    0.3884    0.3172   -2.1146 C   0  0  0  0  0  0  0  0  0  0  0  0
   -1.6111   -0.5790    1.1965 C   0  0  0  0  0  0  0  0  0  0  0  0
   -2.2553   -2.2621   -0.6312 C   0  0  1  0  0  0  0  0  0  0  0  0
   -3.3713    3.9253   -0.7195 N   0  0  0  0  0  0  0  0  0  0  0  0
   -3.7138    2.5464   -0.8826 C   0  0  0  0  0  0  0  0  0  0  0  0
  1  6  2  0
  1 13  1  0
  1 28  1  0
  2 11  1  0
  2 17  1  0
  3 28  2  0
  4 25  1  0
  5 12  2  0
  5 19  1  0
  6 23  1  0
  7 21  1  0
  8 10  1  0
  8 12  1  0
  8 20  2  0
  9 13  2  0
  9 25  1  0
 10 14  1  0
 10 15  1  0
 11 15  1  0
 14 17  1  0
 16 19  1  0
 16 22  2  3
 18 21  1  0
 26 18  1  6
 19 24  2  0
 20 24  1  0
 22 26  1  0
 23 25  2  0
 23 26  1  0
 27 28  1  0
M  END
