
     RDKit          3D

 33 35  0  0  0  0  0  0  0  0999 V2000
   -1.6380    2.7530    0.3228 O   0  0  0  0  0  0  0  0  0  0  0  0
   -2.8972    1.3904   -1.1145 N   0  0  0  0  0  0  0  0  0  0  0  0
    9.1100   -1.4279    0.0779 C   0  0  0  0  0  0  0  0  0  0  0  0
   -4.3404    1.1845   -1.2860 C   0  0  0  0  0  0  0  0  0  0  0  0
   -2.8956    3.9398   -1.3070 C   0  0  0  0  0  0  0  0  0  0  0  0
   -4.5638   -1.3423    1.5166 O   0  0  0  0  0  0  0  0  0  0  0  0
    1.6826    0.5685    0.0665 C   0  0  1  0  0  0  0  0  0  0  0  0
    2.3835   -0.7274   -0.3845 C   0  0  0  0  0  0  0  0  0  0  0  0
    6.2733   -0.5680   -0.0307 C   0  0  0  0  0  0  0  0  0  0  0  0
   -4.8984    0.4800   -0.0319 C   0  0  1  0  0  0  0  0  0  0  0  0
    8.3213   -1.4491   -1.2370 C   0  0  0  0  0  0  0  0  0  0  0  0
   -4.7001   -2.7448    1.4554 C   0  0  0  0  0  0  0  0  0  0  0  0
   -7.2912    0.8124    0.7315 C   0  0  0  0  0  0  0  0  0  0  0  0
   -2.1138    0.1565   -0.9226 C   0  0  1  0  0  0  0  0  0  0  0  0
    7.0695   -0.5584    1.2885 C   0  0  0  0  0  0  0  0  0  0  0  0
   -6.3877    0.2179   -0.1686 C   0  0  0  0  0  0  0  0  0  0  0  0
   -0.6186    0.3989   -1.0015 C   0  0  0  0  0  0  0  0  0  0  0  0
    3.8285   -0.4957   -0.7200 C   0  0  0  0  0  0  0  0  0  0  0  0
   -4.1168   -0.8255    0.2728 C   0  0  1  0  0  0  0  0  0  0  0  0
   -8.2637   -0.8620   -1.2861 C   0  0  0  0  0  0  0  0  0  0  0  0
   -9.1497   -0.2652   -0.3866 C   0  0  0  0  0  0  0  0  0  0  0  0
   -8.6639    0.5710    0.6209 C   0  0  0  0  0  0  0  0  0  0  0  0
   -6.8902   -0.6239   -1.1807 C   0  0  0  0  0  0  0  0  0  0  0  0
   -2.4240    2.6765   -0.6594 C   0  0  0  0  0  0  0  0  0  0  0  0
    0.2379    0.3252    0.1537 N   0  0  0  0  0  0  0  0  0  0  0  0
    4.1305    0.0109   -1.8346 O   0  0  0  0  0  0  0  0  0  0  0  0
    1.5864    2.3784    1.8593 C   0  0  0  0  0  0  0  0  0  0  0  0
   -0.1263    0.7000   -2.1231 O   0  0  0  0  0  0  0  0  0  0  0  0
    2.2282    1.0609    1.4257 C   0  0  0  0  0  0  0  0  0  0  0  0
    6.8225   -1.6503   -0.9788 C   0  0  0  0  0  0  0  0  0  0  0  0
    8.5668   -0.3535    1.0274 C   0  0  0  0  0  0  0  0  0  0  0  0
    4.8520   -0.8093    0.2362 N   0  0  0  0  0  0  0  0  0  0  0  0
   -2.6007   -0.5419    0.3606 C   0  0  0  0  0  0  0  0  0  0  0  0
  1 24  2  0
  2  4  1  0
  2 14  1  0
  2 24  1  0
  3 11  1  0
  3 31  1  0
  4 10  1  0
  5 24  1  0
  6 12  1  0
 19  6  1  1
  7  8  1  1
  7 25  1  0
  7 29  1  0
  8 18  1  0
  9 15  1  0
  9 30  1  0
  9 32  1  0
 10 16  1  6
 10 19  1  0
 11 30  1  0
 13 16  1  0
 13 22  2  0
 14 17  1  1
 14 33  1  0
 15 31  1  0
 16 23  2  0
 17 25  1  0
 17 28  2  0
 18 26  2  0
 18 32  1  0
 19 33  1  0
 20 21  2  0
 20 23  1  0
 21 22  1  0
 27 29  1  0
M  END
