
     RDKit          3D

 31 33  0  0  0  0  0  0  0  0999 V2000
    4.2142   -0.7389   -1.1429 C   0  0  0  0  0  0  0  0  0  0  0  0
   -5.2776    1.6323    1.1346 C   0  0  2  0  0  0  0  0  0  0  0  0
    9.5454    0.6497    0.7648 O   0  0  0  0  0  0  0  0  0  0  0  0
   -6.1340    0.7241    2.0231 C   0  0  0  0  0  0  0  0  0  0  0  0
    7.4347   -0.7776    1.9612 C   0  0  0  0  0  0  0  0  0  0  0  0
   -0.1185   -0.5509   -1.6787 C   0  0  0  0  0  0  0  0  0  0  0  0
   -1.1907   -0.8979   -0.6440 C   0  0  1  0  0  0  0  0  0  0  0  0
   -0.7499   -0.0700    0.5653 C   0  0  0  0  0  0  0  0  0  0  0  0
    5.6246    2.4775    1.1583 O   0  0  0  0  0  0  0  0  0  0  0  0
    8.2877    1.5679   -1.0333 C   0  0  0  0  0  0  0  0  0  0  0  0
    1.1334   -0.3891   -0.9323 N   0  0  0  0  0  0  0  0  0  0  0  0
   -5.3769    1.2826   -0.3749 C   0  0  0  0  0  0  0  0  0  0  0  0
    0.7569    0.1167    0.3998 C   0  0  0  0  0  0  0  0  0  0  0  0
   -2.5779   -0.5107   -1.1303 C   0  0  0  0  0  0  0  0  0  0  0  0
   -8.0034   -2.2015   -0.2802 C   0  0  0  0  0  0  0  0  0  0  0  0
   -1.1461   -2.4087   -0.3238 C   0  0  0  0  0  0  0  0  0  0  0  0
   -7.3807   -1.0642   -0.7375 C   0  0  0  0  0  0  0  0  0  0  0  0
    5.9639    0.2428    0.2236 C   0  0  0  0  0  0  0  0  0  0  0  0
    3.4396    0.4217   -1.0028 C   0  0  0  0  0  0  0  0  0  0  0  0
   -5.0339   -0.1690   -0.8103 C   0  0  1  0  0  0  0  0  0  0  0  0
    5.4681   -0.8266   -0.5345 C   0  0  0  0  0  0  0  0  0  0  0  0
    8.4101    0.7653    0.2278 C   0  0  0  0  0  0  0  0  0  0  0  0
   -7.0980   -3.0031    0.3125 N   0  0  0  0  0  0  0  0  0  0  0  0
   -3.6568   -0.5797   -0.3318 C   0  0  0  0  0  0  0  0  0  0  0  0
    2.0770    0.4972   -1.6393 C   0  0  0  0  0  0  0  0  0  0  0  0
   -3.8866    1.6263    1.5917 N   0  0  0  0  0  0  0  0  0  0  0  0
    5.1818    1.4038    0.3853 C   0  0  0  0  0  0  0  0  0  0  0  0
   -5.9345   -2.3286    0.2074 C   0  0  0  0  0  0  0  0  0  0  0  0
   -6.0770   -1.1315   -0.4082 N   0  0  0  0  0  0  0  0  0  0  0  0
    3.9279    1.4874   -0.2305 C   0  0  0  0  0  0  0  0  0  0  0  0
    7.2603    0.1379    0.8326 N   0  0  0  0  0  0  0  0  0  0  0  0
  1 19  1  0
  1 21  2  0
  2  4  1  1
  2 12  1  0
  2 26  1  0
  3 22  2  0
  5 31  1  0
  6  7  1  0
  6 11  1  0
  7  8  1  0
  7 14  1  0
  7 16  1  1
  8 13  1  0
  9 27  1  0
 10 22  1  0
 11 13  1  0
 11 25  1  0
 20 12  1  1
 14 24  2  3
 15 17  2  0
 15 23  1  0
 17 29  1  0
 18 21  1  0
 18 27  2  0
 18 31  1  0
 19 25  1  0
 19 30  2  0
 20 24  1  0
 20 29  1  0
 22 31  1  0
 23 28  2  0
 27 30  1  0
 28 29  1  0
M  END
