
     RDKit          3D

 31 34  0  0  0  0  0  0  0  0999 V2000
    6.5213   -1.3481   -1.4845 N   0  0  0  0  0  0  0  0  0  0  0  0
    8.0123   -0.2742   -2.6235 C   0  0  0  0  0  0  0  0  0  0  0  0
    7.4723    2.4175   -2.0710 Cl  0  0  0  0  0  0  0  0  0  0  0  0
   -0.8002    0.1066    2.6805 C   0  0  0  0  0  0  0  0  0  0  0  0
    1.5667    0.4066    1.8538 N   0  0  0  0  0  0  0  0  0  0  0  0
   -3.0311   -1.3339    0.4446 C   0  0  0  0  0  0  0  0  0  0  0  0
   -4.2690   -1.2104   -0.1903 C   0  0  0  0  0  0  0  0  0  0  0  0
    4.7179    1.7732   -0.6213 N   0  0  0  0  0  0  0  0  0  0  0  0
   -2.2165   -0.2099    0.6347 C   0  0  0  0  0  0  0  0  0  0  0  0
   -3.8892    1.1670   -0.4626 C   0  0  0  0  0  0  0  0  0  0  0  0
   -6.9683    1.0884   -0.5635 C   0  0  0  0  0  0  0  0  0  0  0  0
    7.5520   -1.4990   -2.3032 N   0  0  0  0  0  0  0  0  0  0  0  0
    1.4263   -0.9945    1.4147 C   0  0  0  0  0  0  0  0  0  0  0  0
   -2.6492    1.0455    0.1739 C   0  0  0  0  0  0  0  0  0  0  0  0
   -7.7477    0.5678    0.5175 N   0  0  0  0  0  0  0  0  0  0  0  0
    4.7294   -0.0259    0.6887 N   0  0  0  0  0  0  0  0  0  0  0  0
    2.9430    0.6943    2.3025 C   0  0  0  0  0  0  0  0  0  0  0  0
    3.8422    0.8865    1.1210 C   0  0  0  0  0  0  0  0  0  0  0  0
   -1.6376    2.4733    0.3507 Cl  0  0  0  0  0  0  0  0  0  0  0  0
    0.1055   -1.1445    0.6589 C   0  0  0  0  0  0  0  0  0  0  0  0
   -5.8929    0.5902   -2.8040 C   0  0  0  0  0  0  0  0  0  0  0  0
   -6.0577    0.1637   -1.3380 C   0  0  1  0  0  0  0  0  0  0  0  0
    3.8216    1.9769    0.3322 N   0  0  0  0  0  0  0  0  0  0  0  0
   -6.9905    2.3588   -0.8229 N   0  0  0  0  0  0  0  0  0  0  0  0
    5.2570    0.5571   -0.4040 C   0  0  0  0  0  0  0  0  0  0  0  0
    0.5978    0.7158    2.9305 C   0  0  0  0  0  0  0  0  0  0  0  0
   -4.7132    0.0412   -0.6491 C   0  0  0  0  0  0  0  0  0  0  0  0
    6.3130   -0.0302   -1.2555 C   0  0  0  0  0  0  0  0  0  0  0  0
    5.7583   -2.4778   -0.9643 C   0  0  0  0  0  0  0  0  0  0  0  0
    7.2463    0.6794   -1.9874 C   0  0  0  0  0  0  0  0  0  0  0  0
   -0.9498   -0.3484    1.2940 N   0  0  0  0  0  0  0  0  0  0  0  0
  1 12  1  0
  1 28  1  0
  1 29  1  0
  2 12  2  0
  2 30  1  0
  3 30  1  0
  4 26  1  0
  4 31  1  0
  5 13  1  0
  5 17  1  0
  5 26  1  0
  6  7  2  0
  6  9  1  0
  7 27  1  0
  8 23  1  0
  8 25  2  0
  9 14  2  0
  9 31  1  0
 10 14  1  0
 10 27  2  0
 11 15  1  0
 11 22  1  0
 11 24  2  0
 13 20  1  0
 14 19  1  0
 16 18  1  0
 16 25  1  0
 17 18  1  0
 18 23  2  0
 20 31  1  0
 22 21  1  6
 22 27  1  0
 25 28  1  0
 28 30  2  0
M  END
