
     RDKit          3D

 30 33  0  0  0  0  0  0  0  0999 V2000
    2.9685    2.3199    1.8496 N   0  0  0  0  0  0  0  0  0  0  0  0
   -3.2474    2.3102    1.5633 C   0  0  0  0  0  0  0  0  0  0  0  0
   -3.9043   -2.6664    1.1544 O   0  0  0  0  0  0  0  0  0  0  0  0
    1.9071   -0.0244   -1.5448 C   0  0  0  0  0  0  0  0  0  0  0  0
    1.0400   -2.1042   -2.6640 N   0  0  0  0  0  0  0  0  0  0  0  0
   -3.2441   -0.4063    0.8417 C   0  0  0  0  0  0  0  0  0  0  0  0
   -4.3088    1.4842    1.9453 C   0  0  0  0  0  0  0  0  0  0  0  0
   -2.4481   -2.3160   -0.6287 N   0  0  0  0  0  0  0  0  0  0  0  0
   -4.3068    0.1307    1.5897 C   0  0  0  0  0  0  0  0  0  0  0  0
    2.2201    1.3363   -1.6842 C   0  0  0  0  0  0  0  0  0  0  0  0
   -1.5879   -3.4894   -0.4499 C   0  0  0  0  0  0  0  0  0  0  0  0
    2.6336    1.5193    0.7032 C   0  0  0  0  0  0  0  0  0  0  0  0
    3.0155    3.9498    3.3356 C   0  0  0  0  0  0  0  0  0  0  0  0
    2.4833    3.5418    2.1322 C   0  0  0  0  0  0  0  0  0  0  0  0
    2.5757    2.1025   -0.5710 C   0  0  0  0  0  0  0  0  0  0  0  0
    3.7907    2.0236    2.8817 C   0  0  0  0  0  0  0  0  0  0  0  0
   -2.1739    0.4311    0.4758 C   0  0  0  0  0  0  0  0  0  0  0  0
    1.5250   -0.7813   -2.7124 N   0  0  0  0  0  0  0  0  0  0  0  0
   -3.2369   -1.8413    0.4731 C   0  0  0  0  0  0  0  0  0  0  0  0
   -2.1800    1.7837    0.8305 C   0  0  0  0  0  0  0  0  0  0  0  0
    4.6036    0.8507    2.9543 N   0  0  0  0  0  0  0  0  0  0  0  0
   -0.8458    2.8184    0.3572 Cl  0  0  0  0  0  0  0  0  0  0  0  0
    3.8453    2.9993    3.8118 N   0  0  0  0  0  0  0  0  0  0  0  0
   -5.6446    2.1460    2.8698 Cl  0  0  0  0  0  0  0  0  0  0  0  0
    2.3101    0.1619    0.8490 C   0  0  0  0  0  0  0  0  0  0  0  0
   -2.6131   -1.7425   -1.9694 C   0  0  0  0  0  0  0  0  0  0  0  0
   -0.4758   -3.5055   -1.5063 C   0  0  0  0  0  0  0  0  0  0  0  0
   -0.1333   -2.1170   -1.8705 N   0  0  0  0  0  0  0  0  0  0  0  0
    1.9614   -0.6074   -0.2644 C   0  0  0  0  0  0  0  0  0  0  0  0
   -1.2429   -1.5143   -2.6426 C   0  0  0  0  0  0  0  0  0  0  0  0
  1 12  1  0
  1 14  1  0
  1 16  1  0
  2  7  1  0
  2 20  2  0
  3 19  2  0
  4 10  1  0
  4 18  1  0
  4 29  2  0
  5 18  1  0
  5 28  1  0
  6  9  1  0
  6 17  2  0
  6 19  1  0
  7  9  2  0
  7 24  1  0
  8 11  1  0
  8 19  1  0
  8 26  1  0
 10 15  2  0
 11 27  1  0
 12 15  1  0
 12 25  2  0
 13 14  2  0
 13 23  1  0
 16 21  1  0
 16 23  2  0
 17 20  1  0
 20 22  1  0
 25 29  1  0
 26 30  1  0
 27 28  1  0
 28 30  1  0
M  END
