
     RDKit          3D

 24 26  0  0  0  0  0  0  0  0999 V2000
    0.4496    0.7979    0.0420 C   0  0  0  0  0  0  0  0  0  0  0  0
    3.5327    1.4003   -0.7546 C   0  0  0  0  0  0  0  0  0  0  0  0
   -4.4846    0.4679    1.2687 C   0  0  0  0  0  0  0  0  0  0  0  0
   -3.1390   -0.2665    1.3819 C   0  0  0  0  0  0  0  0  0  0  0  0
    5.0432    2.2536    1.6621 O   0  0  0  0  0  0  0  0  0  0  0  0
   -4.4465    1.3829   -1.1416 C   0  0  2  0  0  0  0  0  0  0  0  0
   -0.8363   -2.5503    0.6494 C   0  0  0  0  0  0  0  0  0  0  0  0
    2.8278   -2.2868   -0.1519 C   0  0  0  0  0  0  0  0  0  0  0  0
    6.7100    0.9276    0.8060 O   0  0  0  0  0  0  0  0  0  0  0  0
   -2.3591   -0.1958   -1.0590 C   0  0  0  0  0  0  0  0  0  0  0  0
   -0.1616   -1.3677    1.1252 N   0  0  0  0  0  0  0  0  0  0  0  0
    3.3688   -0.1970    1.1958 C   0  0  0  0  0  0  0  0  0  0  0  0
   -5.1202    0.4150   -0.1347 C   0  0  0  0  0  0  0  0  0  0  0  0
   -0.3404   -3.6941    0.8319 O   0  0  0  0  0  0  0  0  0  0  0  0
    2.4711    0.6041   -1.5173 C   0  0  0  0  0  0  0  0  0  0  0  0
   -0.6054    0.0298    0.8951 C   0  0  2  0  0  0  0  0  0  0  0  0
   -2.0718    0.2686    0.3956 C   0  0  2  0  0  0  0  0  0  0  0  0
    1.2196   -1.4812    1.6153 C   0  0  0  0  0  0  0  0  0  0  0  0
    5.3695    1.2792    0.9309 C   0  0  0  0  0  0  0  0  0  0  0  0
    1.4993   -0.1544   -0.5821 C   0  0  1  0  0  0  0  0  0  0  0  0
    2.2334   -1.0185    0.5114 C   0  0  2  0  0  0  0  0  0  0  0  0
   -5.3838    1.8181   -2.0951 O   0  0  0  0  0  0  0  0  0  0  0  0
    4.3194    0.4897    0.1975 C   0  0  0  0  0  0  0  0  0  0  0  0
   -3.2001    0.8079   -1.8659 C   0  0  0  0  0  0  0  0  0  0  0  0
 16  1  1  6
 20  1  1  1
  2 15  1  0
  2 23  1  0
  3  4  1  0
  3 13  1  0
 17  4  1  1
  5 19  2  0
  6 13  1  0
  6 22  1  6
  6 24  1  0
  7 11  1  0
  7 14  2  0
 21  8  1  6
  9 19  1  0
 10 17  1  0
 10 24  1  0
 11 16  1  0
 11 18  1  0
 12 21  1  0
 12 23  1  0
 15 20  1  0
 16 17  1  0
 18 21  1  0
 19 23  1  0
 20 21  1  0
M  END
