
     RDKit          3D

 24 27  0  0  0  0  0  0  0  0999 V2000
    1.8800   -0.4354    0.6490 C   0  0  1  0  0  0  0  0  0  0  0  0
   -0.2533   -0.9838   -0.6423 C   0  0  2  0  0  0  0  0  0  0  0  0
   -4.7503    0.0611    1.5808 C   0  0  0  0  0  0  0  0  0  0  0  0
   -5.6827    1.1927    1.8769 C   0  0  0  0  0  0  0  0  0  0  0  0
   -0.9008   -1.4186   -1.9948 C   0  0  0  0  0  0  0  0  0  0  0  0
    2.0505   -1.6219   -1.5250 C   0  0  0  0  0  0  0  0  0  0  0  0
    4.3164    0.0605    1.6462 C   0  0  0  0  0  0  0  0  0  0  0  0
   -2.4256   -1.2221   -2.0433 C   0  0  0  0  0  0  0  0  0  0  0  0
    0.5166    1.2743   -2.1966 O   0  0  0  0  0  0  0  0  0  0  0  0
    4.9464    1.3835   -0.2541 C   0  0  0  0  0  0  0  0  0  0  0  0
   -6.6180    1.4661    1.0778 O   0  0  0  0  0  0  0  0  0  0  0  0
   -5.4885    1.9714    3.0134 O   0  0  0  0  0  0  0  0  0  0  0  0
   -2.5486   -0.5756    0.4330 C   0  0  2  0  0  0  0  0  0  0  0  0
    5.6399    2.0036   -1.1033 O   0  0  0  0  0  0  0  0  0  0  0  0
   -3.0687   -1.5205   -0.6876 C   0  0  0  0  0  0  0  0  0  0  0  0
    5.5166    0.7581    0.9755 C   0  0  0  0  0  0  0  0  0  0  0  0
    1.4320    0.7884   -1.5498 C   0  0  0  0  0  0  0  0  0  0  0  0
    3.1280    0.4282    0.7586 C   0  0  2  0  0  0  0  0  0  0  0  0
   -3.5547    0.5555    0.7535 C   0  0  0  0  0  0  0  0  0  0  0  0
    1.8421    0.9002    1.4169 C   0  0  0  0  0  0  0  0  0  0  0  0
    2.7805    1.4553   -1.6075 C   0  0  0  0  0  0  0  0  0  0  0  0
   -1.1592    0.0304    0.1016 C   0  0  0  0  0  0  0  0  0  0  0  0
    3.5481    1.2038   -0.3885 N   0  0  0  0  0  0  0  0  0  0  0  0
    1.2529   -0.5251   -0.7778 C   0  0  2  0  0  0  0  0  0  0  0  0
  1 18  1  0
  1 20  1  1
  1 24  1  0
  2  5  1  6
  2 22  1  0
  2 24  1  0
  3  4  1  0
  3 19  1  0
  4 11  2  0
  4 12  1  0
  5  8  1  0
 24  6  1  6
  7 16  1  0
 18  7  1  1
  8 15  1  0
  9 17  2  0
 10 14  2  0
 10 16  1  0
 10 23  1  0
 13 15  1  0
 13 19  1  6
 13 22  1  0
 17 21  1  0
 17 24  1  0
 18 20  1  0
 18 23  1  0
 21 23  1  0
M  END
