
     RDKit          3D

 21 23  0  0  0  0  0  0  0  0999 V2000
   -2.9602   -0.2329   -0.1930 C   0  0  0  0  0  0  0  0  0  0  0  0
    3.0324    1.5174   -0.9914 C   0  0  0  0  0  0  0  0  0  0  0  0
   -5.2204    0.3527   -0.8842 C   0  0  0  0  0  0  0  0  0  0  0  0
    1.4388    0.0080    0.1045 C   0  0  2  0  0  0  0  0  0  0  0  0
    5.7611    1.1681    0.0765 O   0  0  0  0  0  0  0  0  0  0  0  0
    5.7758   -0.8979   -0.9192 O   0  0  0  0  0  0  0  0  0  0  0  0
   -1.4630    0.0136   -0.2578 C   0  0  1  0  0  0  0  0  0  0  0  0
    3.6118    0.1258   -0.7495 C   0  0  2  0  0  0  0  0  0  0  0  0
   -5.7401   -0.6707   -0.0817 C   0  0  0  0  0  0  0  0  0  0  0  0
   -3.4933   -1.2574    0.6135 C   0  0  0  0  0  0  0  0  0  0  0  0
    2.8257   -0.4923    0.3444 N   0  0  0  0  0  0  0  0  0  0  0  0
    0.5378    0.0266    1.3833 C   0  0  0  0  0  0  0  0  0  0  0  0
   -0.9070    0.4919    1.1052 C   0  0  0  0  0  0  0  0  0  0  0  0
   -3.8407    0.5715   -0.9391 C   0  0  0  0  0  0  0  0  0  0  0  0
    0.7836   -0.9342   -0.9720 C   0  0  0  0  0  0  0  0  0  0  0  0
   -7.1131   -0.8975   -0.0197 O   0  0  0  0  0  0  0  0  0  0  0  0
   -0.7153   -1.2257   -0.7688 C   0  0  0  0  0  0  0  0  0  0  0  0
    1.6092    1.4431   -0.4564 C   0  0  0  0  0  0  0  0  0  0  0  0
   -4.8734   -1.4728    0.6659 C   0  0  0  0  0  0  0  0  0  0  0  0
    3.3680   -0.1597    1.6837 C   0  0  0  0  0  0  0  0  0  0  0  0
    5.1119    0.1086   -0.5528 C   0  0  0  0  0  0  0  0  0  0  0  0
  7  1  1  1
  1 10  2  0
  1 14  1  0
  2  8  1  0
  2 18  1  0
  3  9  1  0
  3 14  2  0
  4 11  1  0
  4 12  1  1
  4 15  1  0
  4 18  1  0
  5 21  1  0
  6 21  2  0
  7 13  1  0
  7 17  1  0
  8 11  1  0
  8 21  1  1
  9 16  1  0
  9 19  2  0
 10 19  1  0
 11 20  1  0
 12 13  1  0
 15 17  1  0
M  END
