
     RDKit          3D

 13 14  0  0  0  0  0  0  0  0999 V2000
   -0.7794   -0.1869   -0.0433 C   0  0  0  0  0  0  0  0  0  0  0  0
   -3.5251   -0.5076   -0.3555 C   0  0  0  0  0  0  0  0  0  0  0  0
    1.3014    1.2302    0.2750 C   0  0  0  0  0  0  0  0  0  0  0  0
    1.4789   -1.1858    0.2453 C   0  0  0  0  0  0  0  0  0  0  0  0
    3.4176    0.1902    0.6148 C   0  0  0  0  0  0  0  0  0  0  0  0
    0.5680    2.4493    0.1165 N   0  0  0  0  0  0  0  0  0  0  0  0
    2.6417    1.2998    0.5059 N   0  0  0  0  0  0  0  0  0  0  0  0
   -2.6581   -1.0792   -1.2885 C   0  0  0  0  0  0  0  0  0  0  0  0
   -1.6888    0.3583    0.8771 C   0  0  0  0  0  0  0  0  0  0  0  0
    2.8491   -1.0746    0.4784 C   0  0  0  0  0  0  0  0  0  0  0  0
   -1.2803   -0.9221   -1.1279 C   0  0  0  0  0  0  0  0  0  0  0  0
   -3.0266    0.1898    0.6994 N   0  0  0  0  0  0  0  0  0  0  0  0
    0.6797   -0.0353    0.1525 C   0  0  0  0  0  0  0  0  0  0  0  0
  1  9  1  0
  1 11  2  0
  1 13  1  0
  2  8  2  0
  2 12  1  0
  3  6  1  0
  3  7  2  0
  3 13  1  0
  4 10  1  0
  4 13  2  0
  5  7  1  0
  5 10  2  0
  8 11  1  0
  9 12  2  0
M  END
