
     RDKit          3D

 10 10  0  0  0  0  0  0  0  0999 V2000
   -3.4393   -0.1206    0.1610 N   0  0  0  0  0  0  0  0  0  0  0  0
   -0.8968   -0.1074    0.2055 C   0  0  0  0  0  0  0  0  0  0  0  0
   -2.2234   -1.9556    0.8877 O   0  0  0  0  0  0  0  0  0  0  0  0
    2.7487   -1.0941   -0.3450 C   0  0  0  0  0  0  0  0  0  0  0  0
    1.5089   -0.2626   -0.1952 C   0  0  0  0  0  0  0  0  0  0  0  0
   -2.1997   -0.7766    0.4419 C   0  0  0  0  0  0  0  0  0  0  0  0
    1.5914    1.1365   -0.2153 C   0  0  0  0  0  0  0  0  0  0  0  0
   -0.7939    1.2956    0.1743 C   0  0  0  0  0  0  0  0  0  0  0  0
    0.4435    1.9099   -0.0349 C   0  0  0  0  0  0  0  0  0  0  0  0
    0.2684   -0.8787    0.0345 C   0  0  0  0  0  0  0  0  0  0  0  0
  1  6  1  0
  2  6  1  0
  2  8  2  0
  2 10  1  0
  3  6  2  0
  4  5  1  0
  5  7  1  0
  5 10  2  0
  7  9  2  0
  8  9  1  0
M  END
