
     RDKit          3D

 10 11  0  0  0  0  0  0  0  0999 V2000
   -2.4459   -0.9077    0.1426 C   0  0  0  0  0  0  0  0  0  0  0  0
    0.9315    0.1769    0.2413 C   0  0  0  0  0  0  0  0  0  0  0  0
   -0.9703   -0.7086    0.2796 C   0  0  0  0  0  0  0  0  0  0  0  0
   -0.0964   -1.7607    0.3845 N   0  0  0  0  0  0  0  0  0  0  0  0
    1.0754   -1.1073    0.3809 C   0  0  0  0  0  0  0  0  0  0  0  0
   -0.3579    0.5114    0.1676 N   0  0  0  0  0  0  0  0  0  0  0  0
    2.9977   -0.2806   -0.1240 C   0  0  0  0  0  0  0  0  0  0  0  0
   -0.9313    1.7830   -0.2610 C   0  0  0  0  0  0  0  0  0  0  0  0
    2.2544   -1.5378    0.1242 N   0  0  0  0  0  0  0  0  0  0  0  0
    1.9843    0.7993   -0.1417 N   0  0  0  0  0  0  0  0  0  0  0  0
  1  3  1  0
  2  5  1  0
  2  6  1  0
  2 10  2  0
  3  4  2  0
  3  6  1  0
  4  5  1  0
  5  9  2  0
  6  8  1  0
  7  9  1  0
  7 10  1  0
M  END
