
     RDKit          3D

 25 28  0  0  0  0  0  0  0  0999 V2000
    6.9200    1.1435    0.3670 C   0  0  0  0  0  0  0  0  0  0  0  0
    3.8341   -2.1952    0.3212 N   0  0  0  0  0  0  0  0  0  0  0  0
    1.2022   -0.5876    0.4073 C   0  0  0  0  0  0  0  0  0  0  0  0
   -1.4042   -1.5966    0.5459 C   0  0  0  0  0  0  0  0  0  0  0  0
    4.7527    0.1255    0.3934 C   0  0  0  0  0  0  0  0  0  0  0  0
    6.3048    2.4169    0.3429 C   0  0  0  0  0  0  0  0  0  0  0  0
   -3.4053    1.0713    0.3528 C   0  0  1  0  0  0  0  0  0  0  0  0
    2.5442   -0.0703    0.3691 N   0  0  0  0  0  0  0  0  0  0  0  0
   -4.2874    0.3786   -2.1837 C   0  0  0  0  0  0  0  0  0  0  0  0
   -1.1863   -0.3159   -0.0392 C   0  0  0  0  0  0  0  0  0  0  0  0
   -0.3055   -2.2951    1.0734 C   0  0  0  0  0  0  0  0  0  0  0  0
    0.9469   -1.7837    0.9930 N   0  0  0  0  0  0  0  0  0  0  0  0
    3.7095   -0.7715    0.3951 C   0  0  0  0  0  0  0  0  0  0  0  0
   -2.8202    0.0225   -1.9762 C   0  0  0  0  0  0  0  0  0  0  0  0
   -2.2909    0.5748   -0.6338 C   0  0  1  0  0  0  0  0  0  0  0  0
   -4.7917    0.3732    0.2216 C   0  0  0  0  0  0  0  0  0  0  0  0
   -2.7609   -2.2221    0.7150 C   0  0  0  0  0  0  0  0  0  0  0  0
   -2.0068    1.8423    2.1065 O   0  0  0  0  0  0  0  0  0  0  0  0
   -5.0779   -0.2102   -1.1037 N   0  0  0  0  0  0  0  0  0  0  0  0
    4.9014    2.5323    0.3390 C   0  0  0  0  0  0  0  0  0  0  0  0
   -2.9435    1.1261    1.7895 C   0  0  0  0  0  0  0  0  0  0  0  0
    4.1553    1.3567    0.3635 C   0  0  0  0  0  0  0  0  0  0  0  0
    0.1388    0.1642   -0.1057 C   0  0  0  0  0  0  0  0  0  0  0  0
    6.1381   -0.0270    0.3894 C   0  0  0  0  0  0  0  0  0  0  0  0
    2.8150    1.2333    0.3486 N   0  0  0  0  0  0  0  0  0  0  0  0
  1  6  1  0
  1 24  2  0
  2 13  1  0
  3  8  1  0
  3 12  1  0
  3 23  2  0
  4 10  2  0
  4 11  1  0
  4 17  1  0
  5 13  2  0
  5 22  1  0
  5 24  1  0
  6 20  2  0
  7 15  1  0
  7 16  1  0
  7 21  1  1
  8 13  1  0
  8 25  1  0
  9 14  1  0
  9 19  1  0
 15 10  1  1
 10 23  1  0
 11 12  2  0
 14 15  1  0
 16 19  1  0
 18 21  2  0
 20 22  1  0
 22 25  2  0
M  END
