
     RDKit          3D

 17 18  0  0  0  0  0  0  0  0999 V2000
   -3.6824   -1.6152   -0.1614 C   0  0  0  0  0  0  0  0  0  0  0  0
    1.0149    0.3645    0.3695 C   0  0  0  0  0  0  0  0  0  0  0  0
    3.2346    1.0064    1.1241 C   0  0  0  0  0  0  0  0  0  0  0  0
   -2.7429   -0.4346   -0.0367 C   0  0  0  0  0  0  0  0  0  0  0  0
    3.8061    0.4525   -0.0266 C   0  0  0  0  0  0  0  0  0  0  0  0
   -0.4077    0.3591    0.5816 N   0  0  0  0  0  0  0  0  0  0  0  0
    5.9127   -0.0084   -1.2913 C   0  0  0  0  0  0  0  0  0  0  0  0
    1.8510    0.9702    1.3185 C   0  0  0  0  0  0  0  0  0  0  0  0
    5.1998    0.5128   -0.1744 O   0  0  0  0  0  0  0  0  0  0  0  0
    2.9687   -0.1379   -0.9918 C   0  0  0  0  0  0  0  0  0  0  0  0
   -3.2430    0.8098   -0.1346 C   0  0  0  0  0  0  0  0  0  0  0  0
    1.5845   -0.1752   -0.7973 C   0  0  0  0  0  0  0  0  0  0  0  0
   -0.8189   -1.8069   -0.1924 O   0  0  0  0  0  0  0  0  0  0  0  0
   -1.2847   -0.6694    0.0905 C   0  0  0  0  0  0  0  0  0  0  0  0
   -5.0623   -1.2545    0.3283 C   0  0  0  0  0  0  0  0  0  0  0  0
   -5.4959   -0.0417    0.2468 N   0  0  0  0  0  0  0  0  0  0  0  0
   -4.7161    1.0181   -0.3656 C   0  0  0  0  0  0  0  0  0  0  0  0
  1  4  1  0
  1 15  1  0
  2  6  1  0
  2  8  1  0
  2 12  2  0
  3  5  1  0
  3  8  2  0
  4 11  2  0
  4 14  1  0
  5  9  1  0
  5 10  2  0
  6 14  1  0
  7  9  1  0
 10 12  1  0
 11 17  1  0
 13 14  2  0
 15 16  2  0
 16 17  1  0
M  END
