
     RDKit          3D

 23 25  0  0  0  0  0  0  0  0999 V2000
    0.6328    2.3693   -0.9403 C   0  0  0  0  0  0  0  0  0  0  0  0
   -4.9218   -1.0322   -1.0081 C   0  0  0  0  0  0  0  0  0  0  0  0
   -0.6812   -2.0536   -0.8818 O   0  0  0  0  0  0  0  0  0  0  0  0
    1.1566   -0.6893    2.6984 C   0  0  0  0  0  0  0  0  0  0  0  0
    0.6590   -0.9225    1.2652 C   0  0  2  0  0  0  0  0  0  0  0  0
   -2.8411   -0.0834    0.5736 C   0  0  0  0  0  0  0  0  0  0  0  0
    5.1685   -0.2149   -0.2592 C   0  0  0  0  0  0  0  0  0  0  0  0
    1.2127    0.1800    0.2826 C   0  0  1  0  0  0  0  0  0  0  0  0
   -1.6200    0.2110    1.3715 C   0  0  2  0  0  0  0  0  0  0  0  0
    2.0883   -0.4544   -0.8353 C   0  0  0  0  0  0  0  0  0  0  0  0
    6.1897    0.0903    0.7896 C   0  0  0  0  0  0  0  0  0  0  0  0
   -6.2758    1.0533   -0.5704 C   0  0  0  0  0  0  0  0  0  0  0  0
    0.0856    1.0853   -0.2927 C   0  0  1  0  0  0  0  0  0  0  0  0
   -5.0496    0.2165   -0.3601 C   0  0  0  0  0  0  0  0  0  0  0  0
   -1.4449   -1.9441    0.2919 C   0  0  1  0  0  0  0  0  0  0  0  0
    3.0378    0.5164   -1.3951 N   0  0  0  0  0  0  0  0  0  0  0  0
   -0.8836    1.4543    0.8361 C   0  0  0  0  0  0  0  0  0  0  0  0
   -0.8197   -1.0382    1.2902 N   0  0  0  0  0  0  0  0  0  0  0  0
    5.3087   -1.2869   -0.9770 N   0  0  0  0  0  0  0  0  0  0  0  0
   -3.9906    0.7000    0.4336 C   0  0  0  0  0  0  0  0  0  0  0  0
   -2.7379   -1.3036   -0.0329 C   0  0  0  0  0  0  0  0  0  0  0  0
   -3.7624   -1.8042   -0.8376 C   0  0  0  0  0  0  0  0  0  0  0  0
    4.1026    0.7276   -0.4948 N   0  0  0  0  0  0  0  0  0  0  0  0
 13  1  1  1
  2 14  1  0
  2 22  2  0
 15  3  1  6
  5  4  1  1
  5  8  1  0
  5 18  1  0
  6  9  1  0
  6 20  1  0
  6 21  2  0
  7 11  1  0
  7 19  2  0
  7 23  1  0
  8 10  1  6
  8 13  1  0
  9 17  1  6
  9 18  1  0
 10 16  1  0
 12 14  1  0
 13 17  1  0
 14 20  2  0
 15 18  1  0
 15 21  1  0
 16 23  1  0
 21 22  1  0
M  END
