
     RDKit          3D

 41 48  0  0  0  0  0  0  0  0999 V2000
    5.2726    1.6715   42.9684 O   0  0  0  0  0  0  0  0  0  0  0  0
    2.2644   -2.3302   50.0686 C   0  0  0  0  0  0  0  0  0  0  0  0
    3.8735    1.1329   41.0401 C   0  0  0  0  0  0  0  0  0  0  0  0
    4.1607    2.1338   37.6629 C   0  0  0  0  0  0  0  0  0  0  0  0
    2.2651    1.9003   46.5621 C   0  0  0  0  0  0  0  0  0  0  0  0
   -1.3212   -1.2515   43.6964 C   0  0  0  0  0  0  0  0  0  0  0  0
    2.1098   -0.1704   48.6193 C   0  0  0  0  0  0  0  0  0  0  0  0
    2.2585    2.0687   50.0833 C   0  0  0  0  0  0  0  0  0  0  0  0
    2.1319    3.5068   50.2713 C   0  0  0  0  0  0  0  0  0  0  0  0
    2.5570    0.5495   41.0435 O   0  0  0  0  0  0  0  0  0  0  0  0
    2.3287    2.2329   47.8768 N   0  0  0  0  0  0  0  0  0  0  0  0
    2.7574    1.7089   43.1161 C   0  0  0  0  0  0  0  0  0  0  0  0
    3.2955    3.0158   34.1548 O   0  0  0  0  0  0  0  0  0  0  0  0
    6.0720    1.4317   37.0798 O   0  0  0  0  0  0  0  0  0  0  0  0
    3.6234    1.6397   38.7616 C   0  0  0  0  0  0  0  0  0  0  0  0
    1.9974    0.5851   46.2467 C   0  0  0  0  0  0  0  0  0  0  0  0
    4.3609    1.7750   39.8700 N   0  0  0  0  0  0  0  0  0  0  0  0
    2.4150   -2.0401   52.5914 C   0  0  0  0  0  0  0  0  0  0  0  0
    2.6258    1.0796   38.6288 O   0  0  0  0  0  0  0  0  0  0  0  0
    4.0461    2.0086   42.3312 C   0  0  0  0  0  0  0  0  0  0  0  0
    2.4771    2.9319   45.5380 O   0  0  0  0  0  0  0  0  0  0  0  0
    4.8971    1.2477   36.7836 C   0  0  0  0  0  0  0  0  0  0  0  0
    2.3673   -0.0974   51.0836 C   0  0  0  0  0  0  0  0  0  0  0  0
    2.1251   -0.9547   49.8791 C   0  0  0  0  0  0  0  0  0  0  0  0
    3.7758    2.0726   36.2878 C   0  0  0  0  0  0  0  0  0  0  0  0
    1.7309    1.1546   42.0843 C   0  0  0  0  0  0  0  0  0  0  0  0
    3.2846    3.2289   35.5512 C   0  0  0  0  0  0  0  0  0  0  0  0
   -0.3228   -0.8395   44.4980 C   0  0  0  0  0  0  0  0  0  0  0  0
    1.8641   -0.5304   47.2080 C   0  0  0  0  0  0  0  0  0  0  0  0
   -0.3113   -0.1890   41.7382 C   0  0  0  0  0  0  0  0  0  0  0  0
    0.7230    0.1901   42.6032 C   0  0  0  0  0  0  0  0  0  0  0  0
    2.4484    1.2547   51.1429 N   0  0  0  0  0  0  0  0  0  0  0  0
    4.6940    1.2632   35.2445 C   0  0  0  0  0  0  0  0  0  0  0  0
    2.1911    1.2846   48.7915 C   0  0  0  0  0  0  0  0  0  0  0  0
    2.9648    0.8169   44.2162 O   0  0  0  0  0  0  0  0  0  0  0  0
    0.7661   -0.0116   43.9415 C   0  0  0  0  0  0  0  0  0  0  0  0
   -1.3555   -0.9392   42.2601 C   0  0  0  0  0  0  0  0  0  0  0  0
    1.8230    0.3250   44.7840 C   0  0  0  0  0  0  0  0  0  0  0  0
    2.2667   -2.8644   51.3562 C   0  0  0  0  0  0  0  0  0  0  0  0
    2.4466   -0.6330   52.3707 C   0  0  0  0  0  0  0  0  0  0  0  0
    5.8677    0.5340   34.5940 N   0  0  0  0  0  0  0  0  0  0  0  0
  1 20  1  0
  2 24  1  0
  2 39  2  0
  3 10  1  0
  3 17  1  0
  3 20  1  0
  4 15  1  0
  4 22  1  0
  4 25  1  0
  5 11  1  0
  5 16  1  0
  5 21  2  0
  6 28  1  0
  6 37  2  0
  7 24  1  0
  7 29  1  0
  7 34  2  0
  8  9  1  0
  8 32  2  0
  8 34  1  0
 10 26  1  0
 11 34  1  0
 12 20  1  0
 12 26  1  0
 12 35  1  0
 13 27  1  0
 14 22  1  0
 15 17  1  0
 15 19  2  0
 16 29  1  0
 16 38  1  0
 18 39  1  0
 18 40  1  0
 22 25  1  0
 22 33  1  0
 23 24  1  0
 23 32  1  0
 23 40  2  0
 25 27  1  0
 25 33  1  0
 26 31  1  0
 28 36  2  0
 30 31  2  0
 30 37  1  0
 31 36  1  0
 33 41  1  0
 35 38  1  0
 36 38  1  0
M  END
$$$$
