
     RDKit          3D

 35 38  0  0  0  0  0  0  0  0999 V2000
    1.4074    0.8184   43.7575 C   0  0  0  0  0  0  0  0  0  0  0  0
    0.4663   -0.2834   41.3816 C   0  0  0  0  0  0  0  0  0  0  0  0
    6.4333    0.4154   35.0868 O   0  0  0  0  0  0  0  0  0  0  0  0
   -0.2368   -0.4793   42.5596 C   0  0  0  0  0  0  0  0  0  0  0  0
    2.1465    1.0033   42.6041 C   0  0  0  0  0  0  0  0  0  0  0  0
    1.6408    0.4711   41.4262 C   0  0  0  0  0  0  0  0  0  0  0  0
    2.0269   -2.0791   53.0021 Cl  0  0  0  0  0  0  0  0  0  0  0  0
    0.9714    1.6312   45.8530 C   0  0  0  0  0  0  0  0  0  0  0  0
    4.0231    1.0603   34.2849 N   0  0  0  0  0  0  0  0  0  0  0  0
    4.9280    1.1963   39.0566 O   0  0  0  0  0  0  0  0  0  0  0  0
    0.2394    0.0622   43.7398 C   0  0  0  0  0  0  0  0  0  0  0  0
    3.2701    1.8071   42.2171 C   0  0  0  0  0  0  0  0  0  0  0  0
    2.5393    0.7770   40.2956 C   0  0  0  0  0  0  0  0  0  0  0  0
    3.2082    3.5211   36.6919 C   0  0  0  0  0  0  0  0  0  0  0  0
    4.0588    2.3422   42.9860 O   0  0  0  0  0  0  0  0  0  0  0  0
    2.3007    0.2885   51.6259 C   0  0  0  0  0  0  0  0  0  0  0  0
    2.3978    0.9644   50.4409 C   0  0  0  0  0  0  0  0  0  0  0  0
    4.7662    1.0588   36.6791 C   0  0  0  0  0  0  0  0  0  0  0  0
    1.6544   -1.7483   50.5356 C   0  0  0  0  0  0  0  0  0  0  0  0
    2.2374    3.3768   47.3368 O   0  0  0  0  0  0  0  0  0  0  0  0
    2.0089   -1.0572   51.6214 C   0  0  0  0  0  0  0  0  0  0  0  0
    6.0325    0.5173   36.4063 N   0  0  0  0  0  0  0  0  0  0  0  0
    4.2774    1.7688   35.4408 C   0  0  0  0  0  0  0  0  0  0  0  0
    3.6227    1.5069   40.9199 N   0  0  0  0  0  0  0  0  0  0  0  0
    4.8943    1.9250   40.2935 C   0  0  0  0  0  0  0  0  0  0  0  0
    4.8222    1.9671   37.9015 C   0  0  0  0  0  0  0  0  0  0  0  0
    2.0734    0.7220   47.9627 O   0  0  0  0  0  0  0  0  0  0  0  0
    1.4006    2.1390   47.4682 P   0  0  0  0  0  0  0  0  0  0  0  0
    3.6742    2.9367   38.0399 C   0  0  0  0  0  0  0  0  0  0  0  0
    1.8705    1.2474   45.0402 C   0  0  0  0  0  0  0  0  0  0  0  0
    0.1008    2.3914   48.1978 O   0  0  0  0  0  0  0  0  0  0  0  0
    3.1084    2.4595   35.7215 N   0  0  0  0  0  0  0  0  0  0  0  0
    2.8946    2.6517   50.5094 Cl  0  0  0  0  0  0  0  0  0  0  0  0
    2.0130    0.2726   49.2906 C   0  0  0  0  0  0  0  0  0  0  0  0
    1.6223   -1.0355   49.3957 C   0  0  0  0  0  0  0  0  0  0  0  0
  1  5  2  0
  1 11  1  0
  1 30  1  0
  2  4  1  0
  2  6  2  0
  3 22  1  0
  4 11  2  0
  5  6  1  0
  5 12  1  0
  6 13  1  0
  7 21  1  0
  8 28  1  0
  8 30  2  3
  9 23  1  0
 10 25  1  0
 10 26  1  0
 12 15  2  0
 12 24  1  0
 13 24  1  0
 14 29  1  0
 14 32  1  0
 16 17  1  0
 16 21  2  0
 17 33  1  0
 17 34  2  0
 18 22  1  0
 18 23  1  0
 18 26  1  0
 19 21  1  0
 19 35  2  0
 20 28  2  0
 23 32  1  0
 24 25  1  0
 26 29  1  0
 27 28  1  0
 27 34  1  0
 28 31  1  0
 34 35  1  0
M  END
$$$$
