
     RDKit          3D

 38 42  0  0  0  0  0  0  0  0999 V2000
    2.7578    1.5033   43.8722 N   0  0  0  0  0  0  0  0  0  0  0  0
    3.6286    1.2615   41.0079 C   0  0  0  0  0  0  0  0  0  0  0  0
    2.7657    1.4940   37.8589 C   0  0  0  0  0  0  0  0  0  0  0  0
    3.4171    1.3722   34.2043 C   0  0  0  0  0  0  0  0  0  0  0  0
    2.6119    3.2478   45.2345 O   0  0  0  0  0  0  0  0  0  0  0  0
    2.1366    0.0234   50.2797 C   0  0  0  0  0  0  0  0  0  0  0  0
    2.0504    2.6567   49.3115 C   0  0  0  0  0  0  0  0  0  0  0  0
    5.3702    2.2505   40.2604 O   0  0  0  0  0  0  0  0  0  0  0  0
    2.5305    2.3481   50.5563 C   0  0  0  0  0  0  0  0  0  0  0  0
    1.7380    0.3047   48.9807 C   0  0  0  0  0  0  0  0  0  0  0  0
    2.1678   -1.3199   50.9798 C   0  0  0  0  0  0  0  0  0  0  0  0
    1.9762    1.3067   46.0874 O   0  0  0  0  0  0  0  0  0  0  0  0
    2.5596    1.4449   36.5156 N   0  0  0  0  0  0  0  0  0  0  0  0
    1.7367    1.4984   38.5866 O   0  0  0  0  0  0  0  0  0  0  0  0
    4.3638    1.6758   39.7833 C   0  0  0  0  0  0  0  0  0  0  0  0
    5.9788    1.4198   35.2385 O   0  0  0  0  0  0  0  0  0  0  0  0
    1.1693   -1.8586   51.3251 O   0  0  0  0  0  0  0  0  0  0  0  0
    4.1439    1.5345   38.3762 C   0  0  0  0  0  0  0  0  0  0  0  0
    2.4124    2.0279   45.0625 C   0  0  0  0  0  0  0  0  0  0  0  0
    4.0236    1.4851   43.4075 C   0  0  0  0  0  0  0  0  0  0  0  0
    3.6727    1.4220   35.6833 C   0  0  0  0  0  0  0  0  0  0  0  0
    2.5590    1.1172   51.0243 C   0  0  0  0  0  0  0  0  0  0  0  0
    1.7732    1.0047   42.8117 C   0  0  0  0  0  0  0  0  0  0  0  0
    2.3062    0.5293   41.3493 C   0  0  0  0  0  0  0  0  0  0  0  0
    1.6880    1.6195   48.4902 C   0  0  0  0  0  0  0  0  0  0  0  0
   -0.3013   -0.3165   43.1491 C   0  0  0  0  0  0  0  0  0  0  0  0
    2.0501   -1.2044   43.9247 C   0  0  0  0  0  0  0  0  0  0  0  0
    1.2763   -0.8969   48.1319 C   0  0  0  0  0  0  0  0  0  0  0  0
    4.9114    1.4533   36.1647 C   0  0  0  0  0  0  0  0  0  0  0  0
    1.2026    1.9734   47.0928 C   0  0  0  0  0  0  0  0  0  0  0  0
    4.8767    1.3357   44.2434 O   0  0  0  0  0  0  0  0  0  0  0  0
    5.3762    2.2160   41.4633 N   0  0  0  0  0  0  0  0  0  0  0  0
    1.1478   -0.0564   43.5998 C   0  0  0  0  0  0  0  0  0  0  0  0
    3.3721   -1.9202   51.2661 N   0  0  0  0  0  0  0  0  0  0  0  0
    0.1692    0.2458   44.6151 C   0  0  0  0  0  0  0  0  0  0  0  0
    5.1877    1.5189   37.4970 C   0  0  0  0  0  0  0  0  0  0  0  0
    4.3367    1.6531   42.0777 C   0  0  0  0  0  0  0  0  0  0  0  0
    2.1288    4.1079   48.9279 C   0  0  0  0  0  0  0  0  0  0  0  0
  1 19  1  0
  1 20  1  0
  1 23  1  0
  2 15  4  0
  2 24  1  0
  2 37  4  0
  3 13  4  0
  3 14  2  0
  3 18  4  0
  4 21  1  0
  5 19  2  0
  6 10  4  0
  6 11  1  0
  6 22  4  0
  7  9  4  0
  7 25  4  0
  7 38  1  0
  8 15  4  0
  8 32  4  0
  9 22  4  0
 10 25  4  0
 10 28  1  0
 11 17  2  0
 11 34  1  0
 12 19  1  0
 12 30  1  0
 13 21  4  0
 15 18  1  0
 16 29  1  0
 18 36  4  0
 20 31  2  0
 20 37  1  0
 21 29  4  0
 23 24  1  0
 23 33  1  0
 25 30  1  0
 26 33  1  0
 26 35  1  0
 27 33  1  0
 29 36  4  0
 32 37  4  0
 33 35  1  0
M  END
$$$$
