
     RDKit          3D

 33 34  0  0  0  0  0  0  0  0999 V2000
    2.3567    0.2878   39.2799 O   0  0  0  0  0  0  0  0  0  0  0  0
    5.3028    1.3501   36.5894 C   0  0  0  0  0  0  0  0  0  0  0  0
    4.7701    2.0081   40.0278 C   0  0  0  0  0  0  0  0  0  0  0  0
    2.2254    1.2862   42.5832 C   0  0  0  0  0  0  0  0  0  0  0  0
    2.5002    0.5984   48.3045 C   0  0  0  0  0  0  0  0  0  0  0  0
    6.2893    0.7962   35.6969 O   0  0  0  0  0  0  0  0  0  0  0  0
    2.5991    0.7627   40.4215 C   0  0  0  0  0  0  0  0  0  0  0  0
    4.6139    2.0055   38.7216 C   0  0  0  0  0  0  0  0  0  0  0  0
    2.5620    0.3971   43.7375 O   0  0  0  0  0  0  0  0  0  0  0  0
    4.1737    1.8693   35.9658 C   0  0  0  0  0  0  0  0  0  0  0  0
    2.0248    1.3999   49.3043 N   0  0  0  0  0  0  0  0  0  0  0  0
    2.5968    0.8634   50.5276 C   0  0  0  0  0  0  0  0  0  0  0  0
    3.2776    2.4203   36.7317 C   0  0  0  0  0  0  0  0  0  0  0  0
    2.8713    2.0292   51.5923 C   0  0  0  0  0  0  0  0  0  0  0  0
    4.3775    0.7978   45.1017 O   0  0  0  0  0  0  0  0  0  0  0  0
    1.7191   -0.4163   47.8135 C   0  0  0  0  0  0  0  0  0  0  0  0
    4.2585    2.4876   42.8334 O   0  0  0  0  0  0  0  0  0  0  0  0
    2.1063   -1.3084   51.5327 C   0  0  0  0  0  0  0  0  0  0  0  0
    2.1550    1.2111   45.9135 C   0  0  0  0  0  0  0  0  0  0  0  0
    3.4104    0.8089   34.6261 Cl  0  0  0  0  0  0  0  0  0  0  0  0
    3.6182    1.5621   40.8161 N   0  0  0  0  0  0  0  0  0  0  0  0
    2.0700    2.9162   49.0289 C   0  0  0  0  0  0  0  0  0  0  0  0
    1.3398   -0.1204   46.2202 C   0  0  0  0  0  0  0  0  0  0  0  0
    2.9902    1.0324   44.7539 C   0  0  0  0  0  0  0  0  0  0  0  0
    3.4461    2.5429   38.0837 C   0  0  0  0  0  0  0  0  0  0  0  0
    2.7426    3.3588   35.9930 O   0  0  0  0  0  0  0  0  0  0  0  0
    5.5777    1.4224   37.9272 C   0  0  0  0  0  0  0  0  0  0  0  0
    1.5579   -0.1068   50.9602 C   0  0  0  0  0  0  0  0  0  0  0  0
    2.4918   -2.2531   51.9573 C   0  0  0  0  0  0  0  0  0  0  0  0
    2.9683   -3.4860   52.4707 C   0  0  0  0  0  0  0  0  0  0  0  0
   -0.1632    0.4744   46.2635 C   0  0  0  0  0  0  0  0  0  0  0  0
    1.7156    0.3028   41.5162 C   0  0  0  0  0  0  0  0  0  0  0  0
    3.4614    1.8190   42.1029 C   0  0  0  0  0  0  0  0  0  0  0  0
  1  7  2  0
  2  6  1  0
  2 10  2  0
  2 27  1  0
  3  8  1  0
  3 21  1  0
  4  9  1  0
  4 32  1  0
  4 33  1  0
  5 11  1  0
  5 16  1  0
  7 21  1  0
  7 32  1  0
  8 25  1  0
  8 27  2  0
  9 24  1  0
 10 13  1  0
 10 20  1  0
 11 12  1  0
 11 22  1  0
 12 14  1  0
 12 28  1  0
 13 25  2  0
 13 26  1  0
 15 24  2  0
 16 23  1  0
 17 33  2  0
 18 28  1  0
 18 29  3  0
 19 23  1  0
 19 24  1  0
 21 33  1  0
 23 31  1  0
 29 30  1  0
M  END
$$$$
