
     RDKit          3D

 35 37  0  0  0  0  0  0  0  0999 V2000
    2.2213    1.3669   46.4735 N   0  0  0  0  0  0  0  0  0  0  0  0
    2.9106   -1.4154   52.0682 O   0  0  0  0  0  0  0  0  0  0  0  0
    4.3490    1.8273   47.0403 O   0  0  0  0  0  0  0  0  0  0  0  0
    2.8064    3.8514   35.7262 Cl  0  0  0  0  0  0  0  0  0  0  0  0
    3.4627    0.5842   43.9081 C   0  0  0  0  0  0  0  0  0  0  0  0
    3.6408    2.6086   37.6899 C   0  0  0  0  0  0  0  0  0  0  0  0
    1.2519    2.5325   48.4934 C   0  0  0  0  0  0  0  0  0  0  0  0
    5.2584    0.9796   37.4122 C   0  0  0  0  0  0  0  0  0  0  0  0
    5.2962    1.1731   36.0583 C   0  0  0  0  0  0  0  0  0  0  0  0
    3.0389    1.5688   41.7401 C   0  0  0  0  0  0  0  0  0  0  0  0
    3.5263    1.2818   46.3142 C   0  0  0  0  0  0  0  0  0  0  0  0
    2.3208    0.0677   43.2905 C   0  0  0  0  0  0  0  0  0  0  0  0
    4.4180    1.4763   39.7326 C   0  0  0  0  0  0  0  0  0  0  0  0
    1.9831   -1.2240   51.3596 C   0  0  0  0  0  0  0  0  0  0  0  0
    1.6499    2.5839   47.0026 C   0  0  0  0  0  0  0  0  0  0  0  0
    1.9497    1.1375   50.5508 C   0  0  0  0  0  0  0  0  0  0  0  0
    3.6958    2.8324   36.3541 C   0  0  0  0  0  0  0  0  0  0  0  0
    1.4383   -2.4288   50.2660 S   0  0  0  0  0  0  0  0  0  0  0  0
    0.2772   -0.9999   41.7687 C   0  0  0  0  0  0  0  0  0  0  0  0
    1.5820    1.1865   49.1127 C   0  0  0  0  0  0  0  0  0  0  0  0
    0.4729   -1.3817   43.0222 C   0  0  0  0  0  0  0  0  0  0  0  0
    4.4472    1.6825   38.2406 C   0  0  0  0  0  0  0  0  0  0  0  0
    2.1555    0.4623   42.0105 C   0  0  0  0  0  0  0  0  0  0  0  0
    1.1259   -0.0888   41.3006 C   0  0  0  0  0  0  0  0  0  0  0  0
    3.9222    0.5008   45.1662 C   0  0  0  0  0  0  0  0  0  0  0  0
    5.4493    1.2110   40.3011 O   0  0  0  0  0  0  0  0  0  0  0  0
    6.1280    0.5078   35.2040 N   0  0  0  0  0  0  0  0  0  0  0  0
    4.5123    2.1117   35.5183 C   0  0  0  0  0  0  0  0  0  0  0  0
   -0.2109    2.9579   48.6464 C   0  0  0  0  0  0  0  0  0  0  0  0
    2.1970    3.5274   49.2346 C   0  0  0  0  0  0  0  0  0  0  0  0
    4.4901    2.5447   42.9863 O   0  0  0  0  0  0  0  0  0  0  0  0
    1.2062    0.0320   51.2368 C   0  0  0  0  0  0  0  0  0  0  0  0
    4.1720    1.2617   42.7755 C   0  0  0  0  0  0  0  0  0  0  0  0
    3.2549    1.5749   40.3434 N   0  0  0  0  0  0  0  0  0  0  0  0
    1.4989   -0.8594   43.8182 C   0  0  0  0  0  0  0  0  0  0  0  0
  1 11  1  0
  1 15  1  0
  2 14  2  0
  3 11  2  0
  4 17  1  0
  5 12  1  0
  5 25  2  3
  5 33  1  0
  6 17  2  0
  6 22  1  0
  7 15  1  0
  7 20  1  0
  7 29  1  0
  7 30  1  0
  8  9  1  0
  8 22  2  0
  9 27  1  0
  9 28  2  0
 10 23  1  0
 10 33  1  0
 10 34  1  0
 11 25  1  0
 12 23  1  0
 12 35  2  0
 13 22  1  0
 13 26  2  0
 13 34  1  0
 14 18  1  0
 14 32  1  0
 16 20  1  0
 16 32  1  0
 17 28  1  0
 19 21  2  0
 19 24  1  0
 21 35  1  0
 23 24  2  0
 31 33  1  0
M  END
$$$$
