
     RDKit          3D

 19 20  0  0  0  0  0  0  0  0999 V2000
   -1.0470    1.4637    1.5625 C   0  0  0  0  0  0  0  0  0  0  0  0
    2.1624    0.4361   -0.3746 C   0  0  0  0  0  0  0  0  0  0  0  0
    4.5304   -0.9570   -0.8666 C   0  0  0  0  0  0  0  0  0  0  0  0
   -2.1197    0.6855    0.8503 C   0  0  0  0  0  0  0  0  0  0  0  0
    0.2708    0.9239    1.2346 N   0  0  0  0  0  0  0  0  0  0  0  0
   -2.8279    1.2572   -0.2197 C   0  0  0  0  0  0  0  0  0  0  0  0
    2.9821    0.8066   -1.4695 C   0  0  0  0  0  0  0  0  0  0  0  0
    0.8816    1.1135   -0.0524 C   0  0  0  0  0  0  0  0  0  0  0  0
    4.1651    0.0965   -1.7024 C   0  0  0  0  0  0  0  0  0  0  0  0
    2.5586   -0.5972    0.4216 N   0  0  0  0  0  0  0  0  0  0  0  0
    4.1389   -2.6075    1.2779 Cl  0  0  0  0  0  0  0  0  0  0  0  0
    2.6159    2.1549   -2.5427 Cl  0  0  0  0  0  0  0  0  0  0  0  0
   -2.3987   -0.6367    1.2334 C   0  0  0  0  0  0  0  0  0  0  0  0
   -3.8073    0.5180   -0.8899 C   0  0  0  0  0  0  0  0  0  0  0  0
   -3.7226   -3.0247    1.0443 Cl  0  0  0  0  0  0  0  0  0  0  0  0
   -3.3795   -1.3740    0.5603 C   0  0  0  0  0  0  0  0  0  0  0  0
    3.7056   -1.2917    0.2056 C   0  0  0  0  0  0  0  0  0  0  0  0
    0.3074    1.8381   -0.9090 O   0  0  0  0  0  0  0  0  0  0  0  0
   -4.0837   -0.7954   -0.5007 C   0  0  0  0  0  0  0  0  0  0  0  0
  1  4  1  0
  1  5  1  0
  2  7  2  0
  2  8  1  0
  2 10  1  0
  3  9  2  0
  3 17  1  0
  4  6  2  0
  4 13  1  0
  5  8  1  0
  6 14  1  0
  7  9  1  0
  7 12  1  0
  8 18  2  0
 10 17  2  0
 11 17  1  0
 13 16  2  0
 14 19  2  0
 15 16  1  0
 16 19  1  0
M  END
