
     RDKit          3D

 13 14  0  0  0  0  0  0  0  0999 V2000
    3.6358    1.2016   -0.2854 N   0  0  0  0  0  0  0  0  0  0  0  0
    1.1793    1.1763   -0.4081 C   0  0  0  0  0  0  0  0  0  0  0  0
   -3.6668   -0.3187   -0.3726 C   0  0  0  0  0  0  0  0  0  0  0  0
   -1.4267   -1.1420    0.5781 C   0  0  0  0  0  0  0  0  0  0  0  0
   -1.7669    1.9263   -1.0247 O   0  0  0  0  0  0  0  0  0  0  0  0
   -0.0335   -0.7242    0.4690 C   0  0  0  0  0  0  0  0  0  0  0  0
   -2.2882   -0.1263    0.0579 N   0  0  0  0  0  0  0  0  0  0  0  0
    1.1421   -1.3679    0.8475 C   0  0  0  0  0  0  0  0  0  0  0  0
    2.3627   -0.7171    0.5948 C   0  0  0  0  0  0  0  0  0  0  0  0
   -0.0154    0.5110   -0.1406 C   0  0  0  0  0  0  0  0  0  0  0  0
   -1.8274   -2.2456    1.0342 O   0  0  0  0  0  0  0  0  0  0  0  0
   -1.3973    0.8840   -0.4218 C   0  0  0  0  0  0  0  0  0  0  0  0
    2.3873    0.5528   -0.0317 C   0  0  0  0  0  0  0  0  0  0  0  0
  1 13  1  0
  2 10  1  0
  2 13  2  0
  3  7  1  0
  4  6  1  0
  4  7  1  0
  4 11  2  0
  5 12  2  0
  6  8  1  0
  6 10  2  0
  7 12  1  0
  8  9  2  0
  9 13  1  0
 10 12  1  0
M  END
