
     RDKit          3D

 13 13  0  0  0  0  0  0  0  0999 V2000
   -2.9711    0.8284    0.5409 C   0  0  0  0  0  0  0  0  0  0  0  0
   -3.4149   -1.2505   -0.6173 C   0  0  0  0  0  0  0  0  0  0  0  0
   -3.4479    1.9633    1.1934 O   0  0  0  0  0  0  0  0  0  0  0  0
   -1.1153   -0.5212   -0.2883 C   0  0  0  0  0  0  0  0  0  0  0  0
   -2.0428   -1.4529   -0.7898 C   0  0  0  0  0  0  0  0  0  0  0  0
    3.4923    0.1732    1.3247 N   0  0  0  0  0  0  0  0  0  0  0  0
    0.3379   -0.7438   -0.4821 C   0  0  0  0  0  0  0  0  0  0  0  0
    1.3045   -0.1459    0.3985 N   0  0  0  0  0  0  0  0  0  0  0  0
    0.7290   -1.4847   -1.4256 O   0  0  0  0  0  0  0  0  0  0  0  0
   -1.5934    0.6274    0.3711 C   0  0  0  0  0  0  0  0  0  0  0  0
    2.7434   -0.1812    0.1186 C   0  0  1  0  0  0  0  0  0  0  0  0
    3.0766    0.8051   -1.0031 C   0  0  0  0  0  0  0  0  0  0  0  0
   -3.8779   -0.1143    0.0488 C   0  0  0  0  0  0  0  0  0  0  0  0
  1  3  1  0
  1 10  2  0
  1 13  1  0
  2  5  1  0
  2 13  2  0
  4  5  2  0
  4  7  1  0
  4 10  1  0
  6 11  1  0
  7  8  1  0
  7  9  2  0
  8 11  1  0
 11 12  1  6
M  END
