
     RDKit          3D

 14 15  0  0  0  0  0  0  0  0999 V2000
    3.6261    1.6104   -0.0364 O   0  0  0  0  0  0  0  0  0  0  0  0
   -2.2226   -1.0227   -0.0218 C   0  0  0  0  0  0  0  0  0  0  0  0
   -0.4055    0.5815   -0.2114 C   0  0  0  0  0  0  0  0  0  0  0  0
    1.3891   -1.4068    0.4424 C   0  0  0  0  0  0  0  0  0  0  0  0
   -1.3241    1.5838   -0.5424 C   0  0  0  0  0  0  0  0  0  0  0  0
   -2.6883    1.2833   -0.6129 C   0  0  0  0  0  0  0  0  0  0  0  0
    1.8379   -0.0934    0.1796 C   0  0  0  0  0  0  0  0  0  0  0  0
    2.2022   -2.3227    0.7422 O   0  0  0  0  0  0  0  0  0  0  0  0
    4.1570   -0.5459    0.5262 O   0  0  0  0  0  0  0  0  0  0  0  0
    0.9210    0.8598   -0.1396 N   0  0  0  0  0  0  0  0  0  0  0  0
    0.0581   -1.6908    0.3715 N   0  0  0  0  0  0  0  0  0  0  0  0
   -3.1363   -0.0164   -0.3533 C   0  0  0  0  0  0  0  0  0  0  0  0
    3.2634    0.2944    0.2359 C   0  0  0  0  0  0  0  0  0  0  0  0
   -0.8521   -0.7291    0.0509 C   0  0  0  0  0  0  0  0  0  0  0  0
  1 13  1  0
  2 12  1  0
  2 14  2  0
  3  5  2  0
  3 10  1  0
  3 14  1  0
  4  7  1  0
  4  8  2  0
  4 11  1  0
  5  6  1  0
  6 12  2  0
  7 10  2  0
  7 13  1  0
  9 13  2  0
 11 14  1  0
M  END
