
     RDKit          3D

 12 12  0  0  0  0  0  0  0  0999 V2000
   -2.1725    0.2900   -2.5137 O   0  0  0  0  0  0  0  0  0  0  0  0
   -1.1631   -0.1437   -0.4076 C   0  0  0  0  0  0  0  0  0  0  0  0
    3.7156    0.5859    0.2004 N   0  0  0  0  0  0  0  0  0  0  0  0
    2.4222    2.0226   -1.0789 O   0  0  0  0  0  0  0  0  0  0  0  0
    1.1860    0.3562    0.0775 C   0  0  0  0  0  0  0  0  0  0  0  0
   -3.6730   -0.1912   -0.8136 N   0  0  0  0  0  0  0  0  0  0  0  0
   -1.2284   -0.9094    0.7693 C   0  0  0  0  0  0  0  0  0  0  0  0
   -0.1111   -1.0283    1.5974 C   0  0  0  0  0  0  0  0  0  0  0  0
   -2.3407   -0.0076   -1.3002 C   0  0  0  0  0  0  0  0  0  0  0  0
    1.0873   -0.3971    1.2601 C   0  0  0  0  0  0  0  0  0  0  0  0
    0.0519    0.4808   -0.7468 C   0  0  0  0  0  0  0  0  0  0  0  0
    2.4516    1.0350   -0.2959 C   0  0  0  0  0  0  0  0  0  0  0  0
  1  9  2  0
  2  7  2  0
  2  9  1  0
  2 11  1  0
  3 12  1  0
  4 12  2  0
  5 10  1  0
  5 11  2  0
  5 12  1  0
  6  9  1  0
  7  8  1  0
  8 10  2  0
M  END
