
     RDKit          3D

 14 15  0  0  0  0  0  0  0  0999 V2000
    1.8341    1.0132   -1.8775 O   0  0  0  0  0  0  0  0  0  0  0  0
   -1.7046   -0.3371    0.5197 C   0  0  0  0  0  0  0  0  0  0  0  0
   -0.9902    0.3426   -1.6397 C   0  0  0  0  0  0  0  0  0  0  0  0
   -2.5074   -0.3408    1.7042 N   0  0  0  0  0  0  0  0  0  0  0  0
    0.1442   -0.3790   -0.8991 C   0  0  1  0  0  0  0  0  0  0  0  0
    2.3501    0.2245    0.3261 C   0  0  0  0  0  0  0  0  0  0  0  0
    0.1778   -1.2549    2.6830 O   0  0  0  0  0  0  0  0  0  0  0  0
    1.4592    0.3613   -0.8654 C   0  0  0  0  0  0  0  0  0  0  0  0
    1.8980   -0.3053    1.4297 N   0  0  0  0  0  0  0  0  0  0  0  0
   -0.3939   -0.5512    0.4738 C   0  0  0  0  0  0  0  0  0  0  0  0
   -2.2455    0.0523   -0.8104 C   0  0  0  0  0  0  0  0  0  0  0  0
    3.7559    0.6649    0.2963 C   0  0  0  0  0  0  0  0  0  0  0  0
    4.2710    1.1514   -0.7447 O   0  0  0  0  0  0  0  0  0  0  0  0
    0.5401   -0.7337    1.5965 C   0  0  0  0  0  0  0  0  0  0  0  0
  1  8  2  0
  2  4  1  0
  2 10  2  0
  2 11  1  0
  5  3  1  6
  3 11  1  0
  5  8  1  0
  5 10  1  0
  6  8  1  0
  6  9  2  0
  6 12  1  0
  7 14  2  0
  9 14  1  0
 10 14  1  0
 12 13  2  0
M  END
