
     RDKit          3D

 14 14  0  0  0  0  0  0  0  0999 V2000
   24.6365   13.7037   19.8871 C   0  0  0  0  0  0  0  0  0  0  0  0
   28.9067   14.7368   20.6306 C   0  0  0  0  0  0  0  0  0  0  0  0
   26.0699   15.6557   21.2078 C   0  0  0  0  0  0  0  0  0  0  0  0
   23.3753   13.8758   20.7791 O   0  0  0  0  0  0  0  0  0  0  0  0
   29.5056   13.3150   18.7135 O   0  0  0  0  0  0  0  0  0  0  0  0
   25.8954   13.7845   20.2271 C   0  0  0  0  0  0  0  0  0  0  0  0
   28.4036   15.2002   22.8430 O   0  0  0  0  0  0  0  0  0  0  0  0
   24.4566   13.2063   18.4396 O   0  0  0  0  0  0  0  0  0  0  0  0
   29.9637   15.5099   20.5587 O   0  0  0  0  0  0  0  0  0  0  0  0
   25.0781   12.8258   19.9095 O   0  0  0  0  0  0  0  0  0  0  0  0
   27.1397   13.7820   19.0465 C   0  0  0  0  0  0  0  0  0  0  0  0
   27.9761   14.7959   21.5674 C   0  0  0  0  0  0  0  0  0  0  0  0
   26.5028   14.5122   21.5156 C   0  0  0  0  0  0  0  0  0  0  0  0
   28.6337   13.8930   19.6284 C   0  0  0  0  0  0  0  0  0  0  0  0
  1  4  1  0
  1  6  1  0
  1  8  1  0
  2  9  2  0
  2 12  1  0
  2 14  1  0
  3 13  1  0
  5 14  1  0
  6 10  1  0
  6 11  1  0
  6 13  1  0
  7 12  1  0
 11 14  1  0
 12 13  1  0
M  END
$$$$
