
     RDKit          3D

 14 16  0  0  0  0  0  0  0  0999 V2000
   24.1362   13.6283   20.2997 C   0  0  0  0  0  0  0  0  0  0  0  0
   30.9188   14.4390   20.0520 O   0  0  0  0  0  0  0  0  0  0  0  0
   28.9627   13.9661   19.0665 C   0  0  0  0  0  0  0  0  0  0  0  0
   27.4722   14.4920   20.8666 C   0  0  0  0  0  0  0  0  0  0  0  0
   23.6536   13.9775   21.2354 C   0  0  0  0  0  0  0  0  0  0  0  0
   26.1193   14.5542   21.4866 C   0  0  0  0  0  0  0  0  0  0  0  0
   25.1292   14.0952   20.7380 O   0  0  0  0  0  0  0  0  0  0  0  0
   24.2468   13.1988   18.7976 C   0  0  0  0  0  0  0  0  0  0  0  0
   27.6379   14.0053   19.4438 C   0  0  0  0  0  0  0  0  0  0  0  0
   25.4441   13.1929   18.0506 C   0  0  0  0  0  0  0  0  0  0  0  0
   26.6594   13.5655   18.6152 C   0  0  0  0  0  0  0  0  0  0  0  0
   28.7172   14.8846   21.5211 C   0  0  0  0  0  0  0  0  0  0  0  0
   28.6959   15.3655   22.8469 O   0  0  0  0  0  0  0  0  0  0  0  0
   29.6174   14.4766   20.2403 C   0  0  0  0  0  0  0  0  0  0  0  0
  1  5  1  0
  1  7  1  0
  1  8  2  3
  2 14  1  0
  3  9  1  0
  3 14  2  0
  4  6  2  0
  4  9  2  0
  4 12  1  0
  5  7  1  0
  6  7  1  0
  8 10  1  0
  9 11  1  0
 10 11  2  3
 12 13  1  0
 12 14  1  0
M  END
$$$$
