
     RDKit          3D

 21 24  0  0  0  0  0  0  0  0999 V2000
   23.0744    9.4654   29.2486 C   0  0  0  0  0  0  0  0  0  0  0  0
   25.0162    8.5277   30.1235 C   0  0  0  0  0  0  0  0  0  0  0  0
   24.8894    8.0074   28.8218 C   0  0  0  0  0  0  0  0  0  0  0  0
   22.0335   10.1470   29.0481 O   0  0  0  0  0  0  0  0  0  0  0  0
   22.4238    7.0736   26.2349 C   0  0  0  0  0  0  0  0  0  0  0  0
   25.3580    4.5107   26.1672 C   0  0  0  0  0  0  0  0  0  0  0  0
   26.7958    6.4768   29.3957 C   0  0  0  0  0  0  0  0  0  0  0  0
   23.6180    8.4885   28.1831 C   0  0  0  0  0  0  0  0  0  0  0  0
   22.4475    7.5213   27.7321 C   0  0  0  0  0  0  0  0  0  0  0  0
   27.4987    5.1667   28.8185 C   0  0  0  0  0  0  0  0  0  0  0  0
   23.5349    3.7872   24.6660 C   0  0  0  0  0  0  0  0  0  0  0  0
   23.9100    9.4058   30.2674 N   0  0  0  0  0  0  0  0  0  0  0  0
   22.8039    4.8816   25.0096 C   0  0  0  0  0  0  0  0  0  0  0  0
   25.8426    6.9903   28.3869 C   0  0  0  0  0  0  0  0  0  0  0  0
   26.9124    7.0920   30.6179 C   0  0  0  0  0  0  0  0  0  0  0  0
   24.5574    5.6175   26.5253 C   0  0  0  0  0  0  0  0  0  0  0  0
   27.4317    5.2449   27.2047 C   0  0  0  0  0  0  0  0  0  0  0  0
   26.0287    8.1346   31.0144 C   0  0  0  0  0  0  0  0  0  0  0  0
   26.6005    4.2465   26.4991 N   0  0  0  0  0  0  0  0  0  0  0  0
   24.7734    3.5444   25.2193 C   0  0  0  0  0  0  0  0  0  0  0  0
   23.2969    5.8276   25.9173 C   0  0  0  0  0  0  0  0  0  0  0  0
  1  4  2  0
  1  8  1  0
  1 12  1  0
  2  3  2  0
  2 12  1  0
  2 18  1  0
  3  8  1  0
  3 14  1  0
  5  9  1  0
  5 21  1  0
  6 16  1  0
  6 19  2  3
  6 20  1  0
  7 10  1  0
  7 14  2  0
  7 15  1  0
  8  9  1  0
 10 17  1  0
 11 13  1  0
 11 20  2  0
 13 21  2  0
 15 18  2  0
 16 21  1  0
 17 19  1  0
M  END
$$$$
