
     RDKit          3D

 15 17  0  0  0  0  0  0  0  0999 V2000
   26.4451    5.7210   27.4204 C   0  0  0  0  0  0  0  0  0  0  0  0
   24.1555    5.9162   26.4918 C   0  0  0  0  0  0  0  0  0  0  0  0
   24.8815    7.4573   28.3522 C   0  0  0  0  0  0  0  0  0  0  0  0
   23.4602   10.2045   30.3140 C   0  0  0  0  0  0  0  0  0  0  0  0
   22.4578    9.8195   29.4564 N   0  0  0  0  0  0  0  0  0  0  0  0
   23.9031    7.0299   27.4487 C   0  0  0  0  0  0  0  0  0  0  0  0
   23.1425    5.4691   25.5116 C   0  0  0  0  0  0  0  0  0  0  0  0
   23.6189    4.2214   24.9668 O   0  0  0  0  0  0  0  0  0  0  0  0
   21.3591    7.8305   27.0479 O   0  0  0  0  0  0  0  0  0  0  0  0
   25.3916    5.2940   26.4832 C   0  0  0  0  0  0  0  0  0  0  0  0
   26.1921    6.8018   28.2819 C   0  0  0  0  0  0  0  0  0  0  0  0
   22.7613    7.8190   27.6691 C   0  0  0  0  0  0  0  0  0  0  0  0
   22.9566    8.7734   28.6733 C   0  0  0  0  0  0  0  0  0  0  0  0
   24.5944    9.4776   30.1486 C   0  0  0  0  0  0  0  0  0  0  0  0
   24.4326    8.5226   29.1456 C   0  0  0  0  0  0  0  0  0  0  0  0
  1 10  1  0
  1 11  2  0
  2  6  1  0
  2  7  1  0
  2 10  2  0
  3  6  1  0
  3 11  1  0
  3 15  2  0
  4  5  1  0
  4 14  2  0
  5 13  2  0
  6 12  2  0
  7  8  1  0
  9 12  1  0
 12 13  1  0
 13 15  1  0
 14 15  1  0
M  END
$$$$
