
     RDKit          3D

 33 39  0  0  0  0  0  0  0  0999 V2000
   22.5314    7.7540   27.6471 C   0  0  0  0  0  0  0  0  0  0  0  0
   23.1311    9.0981   27.9484 C   0  0  0  0  0  0  0  0  0  0  0  0
   28.7196    1.1267   27.4174 N   0  0  0  0  0  0  0  0  0  0  0  0
   25.0953    5.4946   27.5329 C   0  0  0  0  0  0  0  0  0  0  0  0
   24.6692    6.8490   27.0422 O   0  0  0  0  0  0  0  0  0  0  0  0
   22.6272    5.7795   26.1491 C   0  0  0  0  0  0  0  0  0  0  0  0
   26.0483    6.0247   31.0184 C   0  0  0  0  0  0  0  0  0  0  0  0
   25.5887    6.6278   32.3042 C   0  0  0  0  0  0  0  0  0  0  0  0
   25.8446    3.6834   25.7806 C   0  0  0  0  0  0  0  0  0  0  0  0
   26.5187    5.4883   27.9915 C   0  0  0  0  0  0  0  0  0  0  0  0
   28.2289    2.0175   28.3977 C   0  0  0  0  0  0  0  0  0  0  0  0
   26.9152    4.1480   28.7366 C   0  0  0  0  0  0  0  0  0  0  0  0
   26.8387    6.7381   28.7959 C   0  0  0  0  0  0  0  0  0  0  0  0
   26.2156    4.5517   30.9670 C   0  0  0  0  0  0  0  0  0  0  0  0
   23.5526    9.0944   29.4375 C   0  0  0  0  0  0  0  0  0  0  0  0
   24.7703    8.5383   29.6517 O   0  0  0  0  0  0  0  0  0  0  0  0
   27.2265    3.4089   26.4384 C   0  0  0  0  0  0  0  0  0  0  0  0
   24.9023    4.6047   26.2854 C   0  0  0  0  0  0  0  0  0  0  0  0
   26.9713    6.8847   30.2462 C   0  0  0  0  0  0  0  0  0  0  0  0
   25.4695    8.7591   30.9142 C   0  0  0  0  0  0  0  0  0  0  0  0
   28.0306    2.5628   25.5706 C   0  0  0  0  0  0  0  0  0  0  0  0
   25.4940    2.9612   24.6743 C   0  0  0  0  0  0  0  0  0  0  0  0
   29.1078    1.9032   26.2487 C   0  0  0  0  0  0  0  0  0  0  0  0
   22.8379    9.5806   30.2782 O   0  0  0  0  0  0  0  0  0  0  0  0
   27.0922    2.9003   27.8740 C   0  0  0  0  0  0  0  0  0  0  0  0
   26.9065    8.3241   30.6579 C   0  0  0  0  0  0  0  0  0  0  0  0
   23.3882    4.0144   24.5557 C   0  0  0  0  0  0  0  0  0  0  0  0
   24.8576    7.9323   32.0390 C   0  0  0  0  0  0  0  0  0  0  0  0
   23.4264    7.7995   25.2436 C   0  0  0  0  0  0  0  0  0  0  0  0
   23.3045    7.0068   26.5737 C   0  0  0  0  0  0  0  0  0  0  0  0
   25.7999    3.8777   29.7206 C   0  0  0  0  0  0  0  0  0  0  0  0
   23.6812    4.8029   25.6441 C   0  0  0  0  0  0  0  0  0  0  0  0
   24.2573    3.1383   24.0466 C   0  0  0  0  0  0  0  0  0  0  0  0
  1  2  1  0
  1 30  1  0
  2 15  1  0
  3 11  1  0
  3 23  1  0
  4  5  1  0
  4 10  1  0
  4 18  1  0
  5 30  1  0
  6 30  1  0
  6 32  1  0
  7  8  1  0
  7 14  1  0
  7 19  1  0
  8 28  1  0
  9 17  1  0
  9 18  1  0
  9 22  2  0
 10 12  1  0
 10 13  1  0
 11 25  1  0
 12 25  1  0
 12 31  1  0
 13 19  1  0
 14 31  1  0
 15 16  1  0
 15 24  2  0
 16 20  1  0
 17 21  1  0
 17 25  1  0
 18 32  2  0
 19 26  1  0
 20 26  1  0
 20 28  1  0
 21 23  1  0
 22 33  1  0
 27 32  1  0
 27 33  2  0
 29 30  1  0
M  END
$$$$
