
     RDKit          3D

 13 14  0  0  0  0  0  0  0  0999 V2000
   23.7433   10.1894   30.5597 O   0  0  0  0  0  0  0  0  0  0  0  0
   23.9543    5.7493   26.5943 C   0  0  0  0  0  0  0  0  0  0  0  0
   23.8069    8.4080   29.0850 C   0  0  0  0  0  0  0  0  0  0  0  0
   26.2281    5.1983   26.8353 C   0  0  0  0  0  0  0  0  0  0  0  0
   24.0539    6.7802   27.5757 C   0  0  0  0  0  0  0  0  0  0  0  0
   26.4924    6.1521   27.8024 C   0  0  0  0  0  0  0  0  0  0  0  0
   25.0521    4.9759   26.2439 N   0  0  0  0  0  0  0  0  0  0  0  0
   23.1527    9.4881   29.7781 N   0  0  0  0  0  0  0  0  0  0  0  0
   25.3404    6.8939   28.2685 C   0  0  0  0  0  0  0  0  0  0  0  0
   22.6378    5.4602   25.8678 N   0  0  0  0  0  0  0  0  0  0  0  0
   25.1081    7.9351   29.1684 C   0  0  0  0  0  0  0  0  0  0  0  0
   23.0899    7.7186   28.1202 N   0  0  0  0  0  0  0  0  0  0  0  0
   21.9954    9.6752   29.4747 O   0  0  0  0  0  0  0  0  0  0  0  0
  1  8  1  0
  2  5  1  0
  2  7  1  0
  2 10  1  0
  3  8  1  0
  3 11  2  0
  3 12  1  0
  4  6  1  0
  4  7  2  0
  5  9  1  0
  5 12  2  0
  6  9  2  0
  8 13  2  0
  9 11  1  0
M  CHG  2   1  -1   8   1
M  END
$$$$
