
     RDKit          3D

 20 23  0  0  0  0  0  0  0  0999 V2000
   25.6634    8.6268   30.8559 C   0  0  0  0  0  0  0  0  0  0  0  0
   26.3086    3.0941   27.8001 O   0  0  0  0  0  0  0  0  0  0  0  0
   23.1734    4.8943   25.1682 C   0  0  0  0  0  0  0  0  0  0  0  0
   24.0549    7.9213   28.7184 C   0  0  0  0  0  0  0  0  0  0  0  0
   25.2683    7.2880   28.8785 C   0  0  0  0  0  0  0  0  0  0  0  0
   24.3473    4.2342   25.4418 C   0  0  0  0  0  0  0  0  0  0  0  0
   23.1785    7.5760   27.6355 N   0  0  0  0  0  0  0  0  0  0  0  0
   25.6474    6.3220   28.0358 N   0  0  0  0  0  0  0  0  0  0  0  0
   24.4493    9.2260   30.6607 C   0  0  0  0  0  0  0  0  0  0  0  0
   25.2167    4.6889   26.4247 C   0  0  0  0  0  0  0  0  0  0  0  0
   24.7936    5.8507   27.1266 C   0  0  0  0  0  0  0  0  0  0  0  0
   22.3539    9.5142   29.3468 C   0  0  0  0  0  0  0  0  0  0  0  0
   22.7520    5.9724   25.8913 C   0  0  0  0  0  0  0  0  0  0  0  0
   26.0697    7.6582   29.9602 C   0  0  0  0  0  0  0  0  0  0  0  0
   26.9491    5.7727   28.2872 C   0  0  0  0  0  0  0  0  0  0  0  0
   26.4293    4.0028   26.7508 C   0  0  0  0  0  0  0  0  0  0  0  0
   23.6213    8.9166   29.5854 C   0  0  0  0  0  0  0  0  0  0  0  0
   24.0203   10.3471   31.8773 Cl  0  0  0  0  0  0  0  0  0  0  0  0
   23.5843    6.4936   26.8592 C   0  0  0  0  0  0  0  0  0  0  0  0
   27.4963    4.9615   27.1727 C   0  0  0  0  0  0  0  0  0  0  0  0
  1  9  4  0
  1 14  4  0
  2 16  1  0
  3  6  4  0
  3 13  4  0
  4  5  4  0
  4  7  2  0
  4 17  4  0
  5  8  1  0
  5 14  4  0
  6 10  4  0
  7 19  1  0
  8 11  1  0
  8 15  1  0
  9 17  4  0
  9 18  1  0
 10 11  4  0
 10 16  1  0
 11 19  4  0
 12 17  1  0
 13 19  4  0
 15 20  1  0
 16 20  1  0
M  END
$$$$
