
     RDKit          3D

 33 37  0  0  0  0  0  0  0  0999 V2000
   31.5246   42.0076   18.0006 C   0  0  0  0  0  0  0  0  0  0  0  0
   32.1441   42.7165   16.8750 N   0  0  0  0  0  0  0  0  0  0  0  0
   26.4819   36.7528   21.2285 N   0  0  0  0  0  0  0  0  0  0  0  0
   27.2655   41.9304   19.4225 C   0  0  0  0  0  0  0  0  0  0  0  0
   38.0017   44.3196   17.8221 N   0  0  0  0  0  0  0  0  0  0  0  0
   39.3480   46.3752   16.2688 C   0  0  0  0  0  0  0  0  0  0  0  0
   39.6046   44.3264   19.5312 C   0  0  0  0  0  0  0  0  0  0  0  0
   39.8067   45.8880   17.6372 C   0  0  0  0  0  0  0  0  0  0  0  0
   35.0624   45.0967   16.4712 C   0  0  0  0  0  0  0  0  0  0  0  0
   37.5305   46.4156   14.6380 C   0  0  0  0  0  0  0  0  0  0  0  0
   41.4136   45.9174   19.3695 C   0  0  0  0  0  0  0  0  0  0  0  0
   27.9385   39.6346   19.7315 C   0  0  0  0  0  0  0  0  0  0  0  0
   39.1383   44.9372   18.3321 C   0  0  0  0  0  0  0  0  0  0  0  0
   30.1920   41.6749   17.6976 N   0  0  0  0  0  0  0  0  0  0  0  0
   27.6191   38.3028   20.2790 N   0  0  0  0  0  0  0  0  0  0  0  0
   28.5313   37.3337   20.5209 N   0  0  0  0  0  0  0  0  0  0  0  0
   27.0236   40.6549   19.8729 C   0  0  0  0  0  0  0  0  0  0  0  0
   29.3836   41.1359   18.6338 C   0  0  0  0  0  0  0  0  0  0  0  0
   28.4391   42.1650   18.7781 C   0  0  0  0  0  0  0  0  0  0  0  0
   37.4620   44.7377   16.7023 N   0  0  0  0  0  0  0  0  0  0  0  0
   29.1430   39.8877   19.1069 C   0  0  0  0  0  0  0  0  0  0  0  0
   40.7519   44.8997   20.0651 C   0  0  0  0  0  0  0  0  0  0  0  0
   32.1733   41.6361   18.9121 O   0  0  0  0  0  0  0  0  0  0  0  0
   36.1082   44.2395   16.7821 C   0  0  0  0  0  0  0  0  0  0  0  0
   33.5504   43.1266   16.8451 C   0  0  0  0  0  0  0  0  0  0  0  0
   37.5100   45.6696   13.2840 C   0  0  0  0  0  0  0  0  0  0  0  0
   26.3575   37.9507   20.6944 C   0  0  0  0  0  0  0  0  0  0  0  0
   27.8091   36.4043   21.0496 C   0  0  0  0  0  0  0  0  0  0  0  0
   34.6257   42.2765   17.1287 C   0  0  0  0  0  0  0  0  0  0  0  0
   35.9379   42.8808   17.1265 C   0  0  0  0  0  0  0  0  0  0  0  0
   38.1426   45.5287   15.6706 C   0  0  0  0  0  0  0  0  0  0  0  0
   33.7668   44.4830   16.5018 C   0  0  0  0  0  0  0  0  0  0  0  0
   41.0171   46.4141   18.1904 N   0  0  0  0  0  0  0  0  0  0  0  0
  1  2  1  0
  1 14  1  0
  1 23  2  0
  2 25  1  0
  3 27  2  0
  3 28  1  0
  4 17  1  0
  4 19  2  0
  5 13  1  0
  5 20  1  0
  6  8  1  0
  6 31  1  0
  7 13  2  0
  7 22  1  0
  8 13  1  0
  8 33  2  0
  9 24  2  0
  9 32  1  0
 10 26  1  0
 10 31  1  0
 11 22  2  0
 11 33  1  0
 12 15  1  0
 12 17  2  0
 12 21  1  0
 14 18  1  0
 15 16  1  0
 15 27  1  0
 16 28  2  0
 18 19  1  0
 18 21  2  0
 20 24  1  0
 20 31  1  0
 24 30  1  0
 25 29  1  0
 25 32  2  0
 29 30  2  0
M  END
$$$$
