
     RDKit          3D

 29 32  0  0  0  0  0  0  0  0999 V2000
   30.9589   39.8112   18.9838 C   0  0  0  0  0  0  0  0  0  0  0  0
   32.4745   43.9316   16.7604 C   0  0  0  0  0  0  0  0  0  0  0  0
   38.7877   46.6700   14.5225 C   0  0  0  0  0  0  0  0  0  0  0  0
   26.4826   39.0329   21.1378 C   0  0  0  0  0  0  0  0  0  0  0  0
   27.6633   38.3545   21.1413 C   0  0  0  0  0  0  0  0  0  0  0  0
   33.4741   44.7903   16.3327 C   0  0  0  0  0  0  0  0  0  0  0  0
   36.9756   45.4870   15.5016 C   0  0  0  0  0  0  0  0  0  0  0  0
   26.3561   40.2157   20.4453 C   0  0  0  0  0  0  0  0  0  0  0  0
   32.1055   40.7852   18.6252 C   0  0  0  0  0  0  0  0  0  0  0  0
   28.5930   40.0152   19.6752 C   0  0  0  0  0  0  0  0  0  0  0  0
   34.0343   42.2276   17.2520 C   0  0  0  0  0  0  0  0  0  0  0  0
   31.7227   41.7695   17.6225 N   0  0  0  0  0  0  0  0  0  0  0  0
   29.3204   40.6350   17.3502 C   0  0  0  0  0  0  0  0  0  0  0  0
   32.7717   42.6376   17.2233 C   0  0  0  0  0  0  0  0  0  0  0  0
   37.6992   45.4310   16.6735 C   0  0  0  0  0  0  0  0  0  0  0  0
   36.6070   46.5413   13.0134 Cl  0  0  0  0  0  0  0  0  0  0  0  0
   38.9873   45.9071   16.6462 C   0  0  0  0  0  0  0  0  0  0  0  0
   27.4161   40.7281   19.7602 C   0  0  0  0  0  0  0  0  0  0  0  0
   34.8530   44.4259   16.3649 C   0  0  0  0  0  0  0  0  0  0  0  0
   39.5187   46.5015   15.6034 N   0  0  0  0  0  0  0  0  0  0  0  0
   39.8077   45.7789   17.7085 C   0  0  0  0  0  0  0  0  0  0  0  0
   35.5882   45.5374   15.7371 N   0  0  0  0  0  0  0  0  0  0  0  0
   28.7112   38.8402   20.4144 C   0  0  0  0  0  0  0  0  0  0  0  0
   41.4954   45.6573   19.7430 C   0  0  0  0  0  0  0  0  0  0  0  0
   40.5670   45.7137   18.6458 C   0  0  0  0  0  0  0  0  0  0  0  0
   37.4970   46.2365   14.4493 C   0  0  0  0  0  0  0  0  0  0  0  0
   29.6362   40.4687   19.0160 N   0  0  0  0  0  0  0  0  0  0  0  0
   35.1599   43.1656   16.7977 C   0  0  0  0  0  0  0  0  0  0  0  0
   30.2877   41.8029   16.9871 C   0  0  0  0  0  0  0  0  0  0  0  0
  1  9  1  0
  1 27  1  0
  2  6  2  0
  2 14  1  0
  3 20  2  0
  3 26  1  0
  4  5  2  0
  4  8  1  0
  5 23  1  0
  6 19  1  0
  7 15  1  0
  7 22  1  0
  7 26  2  0
  8 18  2  0
  9 12  1  0
 10 18  1  0
 10 23  2  0
 10 27  1  0
 11 14  2  0
 11 28  1  0
 12 14  1  0
 12 29  1  0
 13 27  1  0
 13 29  1  0
 15 17  2  0
 16 26  1  0
 17 20  1  0
 17 21  1  0
 19 22  1  0
 19 28  2  0
 21 25  3  0
 24 25  1  0
M  END
$$$$
