
     RDKit          3D

 33 38  0  0  0  0  0  0  0  0999 V2000
   39.7001   44.2786   20.2104 C   0  0  0  0  0  0  0  0  0  0  0  0
   40.7748   44.9752   19.7224 C   0  0  0  0  0  0  0  0  0  0  0  0
   28.3381   43.0433   17.9908 C   0  0  0  0  0  0  0  0  0  0  0  0
   28.0184   39.0311   20.7500 C   0  0  0  0  0  0  0  0  0  0  0  0
   28.6026   39.9335   19.8748 N   0  0  0  0  0  0  0  0  0  0  0  0
   29.9098   39.9131   19.2642 C   0  0  0  0  0  0  0  0  0  0  0  0
   27.3833   37.0851   22.1671 C   0  0  0  0  0  0  0  0  0  0  0  0
   26.8256   39.2359   21.3277 N   0  0  0  0  0  0  0  0  0  0  0  0
   39.7223   46.8320   15.6102 C   0  0  0  0  0  0  0  0  0  0  0  0
   37.6487   46.9348   14.2687 C   0  0  0  0  0  0  0  0  0  0  0  0
   31.9092   43.6302   16.5510 C   0  0  0  0  0  0  0  0  0  0  0  0
   39.0233   47.2282   14.4767 C   0  0  0  0  0  0  0  0  0  0  0  0
   29.9999   41.1038   18.4772 C   0  0  0  0  0  0  0  0  0  0  0  0
   27.8591   41.0973   19.4372 N   0  0  0  0  0  0  0  0  0  0  0  0
   37.5701   45.6719   16.3967 C   0  0  0  0  0  0  0  0  0  0  0  0
   38.4763   44.1654   19.6335 N   0  0  0  0  0  0  0  0  0  0  0  0
   28.6638   37.5226   21.2092 S   0  0  0  0  0  0  0  0  0  0  0  0
   39.4402   45.5426   17.8077 C   0  0  0  0  0  0  0  0  0  0  0  0
   32.5131   40.7963   17.7706 C   0  0  0  0  0  0  0  0  0  0  0  0
   38.3669   44.8138   18.4235 C   0  0  0  0  0  0  0  0  0  0  0  0
   35.4314   43.1484   17.2222 C   0  0  0  0  0  0  0  0  0  0  0  0
   34.0798   42.7540   17.4430 N   0  0  0  0  0  0  0  0  0  0  0  0
   28.7326   41.7710   18.6496 C   0  0  0  0  0  0  0  0  0  0  0  0
   35.9136   44.3917   17.8696 C   0  0  0  0  0  0  0  0  0  0  0  0
   26.4322   38.2429   22.0958 C   0  0  0  0  0  0  0  0  0  0  0  0
   37.2833   44.8687   17.5234 N   0  0  0  0  0  0  0  0  0  0  0  0
   33.6462   41.6510   18.3238 C   0  0  0  0  0  0  0  0  0  0  0  0
   40.7049   45.6683   18.4512 C   0  0  0  0  0  0  0  0  0  0  0  0
   31.1669   41.6942   17.7908 N   0  0  0  0  0  0  0  0  0  0  0  0
   33.3432   43.3701   16.3238 C   0  0  0  0  0  0  0  0  0  0  0  0
   36.9340   46.2079   15.1926 C   0  0  0  0  0  0  0  0  0  0  0  0
   31.1196   42.3665   16.5070 C   0  0  0  0  0  0  0  0  0  0  0  0
   38.9714   46.0814   16.5483 C   0  0  0  0  0  0  0  0  0  0  0  0
  1  2  2  0
  1 16  1  0
  2 28  1  0
  3 23  1  0
  4  5  1  0
  4  8  2  0
  4 17  1  0
  5  6  1  0
  5 14  1  0
  6 13  2  0
  7 17  1  0
  7 25  2  0
  8 25  1  0
  9 12  1  0
  9 33  2  0
 10 12  2  0
 10 31  1  0
 11 30  1  0
 11 32  1  0
 13 23  1  0
 13 29  1  0
 14 23  2  0
 15 26  1  0
 15 31  2  0
 15 33  1  0
 16 20  2  0
 18 20  1  0
 18 28  2  0
 18 33  1  0
 19 27  1  0
 19 29  1  0
 20 26  1  0
 21 22  1  0
 21 24  1  0
 22 27  1  0
 22 30  1  0
 24 26  1  0
 29 32  1  0
M  END
$$$$
