
     RDKit          3D

 31 35  0  0  0  0  0  0  0  0999 V2000
   28.8260   40.1791   19.7802 C   0  0  0  0  0  0  0  0  0  0  0  0
   39.4456   46.2767   16.2370 C   0  0  0  0  0  0  0  0  0  0  0  0
   29.7969   42.1985   18.4925 C   0  0  0  0  0  0  0  0  0  0  0  0
   33.9735   44.2917   16.6058 C   0  0  0  0  0  0  0  0  0  0  0  0
   41.5684   46.2263   18.8757 N   0  0  0  0  0  0  0  0  0  0  0  0
   35.1650   42.1891   16.8217 C   0  0  0  0  0  0  0  0  0  0  0  0
   36.3288   44.3094   16.6388 C   0  0  0  0  0  0  0  0  0  0  0  0
   38.3838   44.9636   17.7798 N   0  0  0  0  0  0  0  0  0  0  0  0
   39.7055   44.9438   19.6919 C   0  0  0  0  0  0  0  0  0  0  0  0
   33.9335   42.8783   16.7667 C   0  0  0  0  0  0  0  0  0  0  0  0
   36.3766   42.9335   16.7971 C   0  0  0  0  0  0  0  0  0  0  0  0
   28.7142   42.9713   18.7386 N   0  0  0  0  0  0  0  0  0  0  0  0
   29.2277   39.0583   20.4683 C   0  0  0  0  0  0  0  0  0  0  0  0
   31.9115   41.8061   17.5684 C   0  0  0  0  0  0  0  0  0  0  0  0
   38.5379   44.2658   19.0073 C   0  0  0  0  0  0  0  0  0  0  0  0
   37.4563   46.0666   13.2622 N   0  0  0  0  0  0  0  0  0  0  0  0
   29.9115   40.8111   18.9396 C   0  0  0  0  0  0  0  0  0  0  0  0
   27.0209   38.7984   21.3407 C   0  0  0  0  0  0  0  0  0  0  0  0
   37.5712   44.9902   16.6476 C   0  0  0  0  0  0  0  0  0  0  0  0
   39.5188   45.7425   17.5578 C   0  0  0  0  0  0  0  0  0  0  0  0
   38.2295   45.7656   15.6992 C   0  0  0  0  0  0  0  0  0  0  0  0
   31.9714   40.5670   17.9787 C   0  0  0  0  0  0  0  0  0  0  0  0
   33.0118   42.3239   16.8047 N   0  0  0  0  0  0  0  0  0  0  0  0
   30.8311   42.6624   17.7743 N   0  0  0  0  0  0  0  0  0  0  0  0
   27.5056   40.5533   19.8722 C   0  0  0  0  0  0  0  0  0  0  0  0
   30.9808   40.1158   18.6584 N   0  0  0  0  0  0  0  0  0  0  0  0
   35.1301   45.0378   16.5950 C   0  0  0  0  0  0  0  0  0  0  0  0
   40.4049   45.6950   18.7012 C   0  0  0  0  0  0  0  0  0  0  0  0
   37.7900   45.9541   14.3764 C   0  0  0  0  0  0  0  0  0  0  0  0
   26.6136   39.8672   20.6847 C   0  0  0  0  0  0  0  0  0  0  0  0
   28.2832   38.4487   21.2226 C   0  0  0  0  0  0  0  0  0  0  0  0
  1 13  1  0
  1 17  1  0
  1 25  2  0
  2 20  2  0
  2 21  1  0
  3 12  1  0
  3 17  2  0
  3 24  1  0
  4 10  1  0
  4 27  2  0
  5 28  1  0
  6 10  2  0
  6 11  1  0
  7 11  2  0
  7 19  1  0
  7 27  1  0
  8 15  1  0
  8 19  1  0
  8 20  1  0
  9 15  1  0
  9 28  1  0
 10 23  1  0
 13 31  2  0
 14 22  1  0
 14 23  1  0
 14 24  2  0
 16 29  3  0
 17 26  1  0
 18 30  2  0
 18 31  1  0
 19 21  2  0
 20 28  1  0
 21 29  1  0
 22 26  2  0
 25 30  1  0
M  END
$$$$
