
     RDKit          3D

 17 17  0  0  0  0  0  0  0  0999 V2000
  -17.1597   22.3991   65.1727 O   0  0  0  0  0  0  0  0  0  0  0  0
  -16.0929   22.1604   67.2618 C   0  0  0  0  0  0  0  0  0  0  0  0
  -17.9653   20.8925   68.2213 C   0  0  0  0  0  0  0  0  0  0  0  0
  -17.0845   23.0347   66.4839 C   0  0  0  0  0  0  0  0  0  0  0  0
  -18.7665   20.4052   72.1048 C   0  0  0  0  0  0  0  0  0  0  0  0
  -18.3554   20.9660   70.7191 C   0  0  0  0  0  0  0  0  0  0  0  0
  -19.5402   19.6330   69.5052 N   0  0  0  0  0  0  0  0  0  0  0  0
  -18.4402   23.2257   67.1146 C   0  0  0  0  0  0  0  0  0  0  0  0
  -17.8234   19.5267   72.9790 C   0  0  0  0  0  0  0  0  0  0  0  0
  -16.1180   20.2901   74.6070 C   0  0  0  0  0  0  0  0  0  0  0  0
  -17.5297   20.4491   74.2408 C   0  0  0  0  0  0  0  0  0  0  0  0
  -16.5343   20.8468   67.8002 C   0  0  0  0  0  0  0  0  0  0  0  0
  -18.0825   20.1438   69.4427 C   0  0  0  0  0  0  0  0  0  0  0  0
  -17.8656   21.5256   74.1251 O   0  0  0  0  0  0  0  0  0  0  0  0
  -18.8746   22.1019   68.1544 C   0  0  0  0  0  0  0  0  0  0  0  0
  -18.8322   17.9441   73.7188 S   0  0  0  0  0  0  0  0  0  0  0  0
  -15.1205   21.0247   73.8953 O   0  0  0  0  0  0  0  0  0  0  0  0
  1  4  1  0
  2  4  1  0
  2 12  1  0
  3 12  1  0
  3 13  2  3
  3 15  1  0
  4  8  1  0
  5  6  1  0
  5  9  1  0
  6 13  1  0
  7 13  1  0
  8 15  1  0
  9 11  1  0
  9 16  1  0
 10 11  1  0
 10 17  1  0
 11 14  1  0
M  END
$$$$
