
     RDKit          3D

 20 21  0  0  0  0  0  0  0  0999 V2000
  -17.5045   20.9318   73.5284 C   0  0  0  0  0  0  0  0  0  0  0  0
  -17.6443   24.2915   64.3154 C   0  0  0  0  0  0  0  0  0  0  0  0
  -17.8281   19.8883   74.6014 C   0  0  0  0  0  0  0  0  0  0  0  0
  -17.2851   17.6544   75.1990 O   0  0  0  0  0  0  0  0  0  0  0  0
  -17.0514   22.5677   67.2758 C   0  0  0  0  0  0  0  0  0  0  0  0
  -17.5476   21.5920   71.0577 C   0  0  0  0  0  0  0  0  0  0  0  0
  -15.7870   21.8835   71.8089 O   0  0  0  0  0  0  0  0  0  0  0  0
  -17.7902   18.4430   74.1291 C   0  0  0  0  0  0  0  0  0  0  0  0
  -17.7356   20.5758   72.1962 C   0  0  0  0  0  0  0  0  0  0  0  0
  -15.7926   23.3419   65.8961 O   0  0  0  0  0  0  0  0  0  0  0  0
  -20.4207   20.4200   69.2335 S   0  0  0  0  0  0  0  0  0  0  0  0
  -18.9475   20.5057   70.1116 C   0  0  0  0  0  0  0  0  0  0  0  0
  -17.1935   23.5811   65.5724 C   0  0  0  0  0  0  0  0  0  0  0  0
  -18.7188   21.5756   68.6401 C   0  0  0  0  0  0  0  0  0  0  0  0
  -18.0711   22.3085   73.9240 C   0  0  0  0  0  0  0  0  0  0  0  0
  -17.4168   21.9803   68.4158 C   0  0  0  0  0  0  0  0  0  0  0  0
  -16.8466   18.4852   72.9676 C   0  0  0  0  0  0  0  0  0  0  0  0
  -17.3153   19.1978   71.7977 O   0  0  0  0  0  0  0  0  0  0  0  0
  -17.8251   22.9451   66.6134 C   0  0  0  0  0  0  0  0  0  0  0  0
  -16.6351   21.7475   69.7177 C   0  0  0  0  0  0  0  0  0  0  0  0
  1  3  1  0
  1  9  1  0
  1 15  1  0
  2 13  1  0
  3  8  1  0
  4  8  1  0
  5 16  1  0
  5 19  1  0
  6  7  1  0
  6  9  1  0
  6 12  1  0
  6 20  1  0
  8 17  1  0
  9 18  1  0
 10 13  1  0
 11 12  1  0
 12 14  1  0
 13 19  1  0
 14 16  1  0
 16 20  1  0
 17 18  1  0
M  END
$$$$
