
     RDKit          3D

 12 11  0  0  0  0  0  0  0  0999 V2000
  -10.7967    4.8467  -26.7564 N   0  0  0  0  0  0  0  0  0  0  0  0
   -8.5158    5.3137  -29.6040 C   0  0  0  0  0  0  0  0  0  0  0  0
   -9.3829    4.3066  -28.8977 C   0  0  0  0  0  0  0  0  0  0  0  0
   -8.5774    2.1623  -32.2116 O   0  0  0  0  0  0  0  0  0  0  0  0
   -7.5292    4.5752  -30.4391 C   0  0  0  0  0  0  0  0  0  0  0  0
   -7.5209    3.1747  -30.2362 O   0  0  0  0  0  0  0  0  0  0  0  0
  -10.1818    4.6328  -27.6774 C   0  0  0  0  0  0  0  0  0  0  0  0
   -7.8696    6.1670  -28.6599 O   0  0  0  0  0  0  0  0  0  0  0  0
  -10.1980    3.6502  -29.8683 O   0  0  0  0  0  0  0  0  0  0  0  0
   -6.0170    2.5022  -32.1608 O   0  0  0  0  0  0  0  0  0  0  0  0
   -7.2507    2.0911  -31.4067 P   0  0  0  0  0  0  0  0  0  0  0  0
   -6.9925    0.7084  -30.6759 O   0  0  0  0  0  0  0  0  0  0  0  0
  1  7  3  0
  2  3  1  0
  2  5  1  0
  2  8  1  0
  3  7  1  0
  3  9  1  0
  4 11  2  0
  5  6  1  0
  6 11  1  0
 10 11  1  0
 11 12  1  0
M  END
$$$$
