
     RDKit          3D

 24 27  0  0  0  0  0  0  0  0999 V2000
   -7.9975    7.2970  -28.0913 N   0  0  0  0  0  0  0  0  0  0  0  0
   -9.0413    4.4312  -29.9253 C   0  0  0  0  0  0  0  0  0  0  0  0
   -7.9446    0.3840  -31.9071 C   0  0  0  0  0  0  0  0  0  0  0  0
   -7.7009    3.9503  -30.0996 N   0  0  0  0  0  0  0  0  0  0  0  0
   -6.4045   -1.2944  -33.4102 O   0  0  0  0  0  0  0  0  0  0  0  0
   -5.2217    0.5671  -32.3371 O   0  0  0  0  0  0  0  0  0  0  0  0
   -9.7013    5.8624  -27.8215 C   0  0  0  0  0  0  0  0  0  0  0  0
  -10.3364    3.6712  -29.4802 C   0  0  0  0  0  0  0  0  0  0  0  0
   -6.3361   -0.5240  -32.1527 P   0  0  0  0  0  0  0  0  0  0  0  0
   -7.8354    2.5764  -31.8237 C   0  0  0  0  0  0  0  0  0  0  0  0
   -8.9221    5.4902  -28.9045 C   0  0  0  0  0  0  0  0  0  0  0  0
   -9.2664    2.3871  -32.5352 C   0  0  0  0  0  0  0  0  0  0  0  0
   -7.9010    1.8265  -33.0980 C   0  0  0  0  0  0  0  0  0  0  0  0
  -11.1464    3.8221  -28.2433 C   0  0  0  0  0  0  0  0  0  0  0  0
  -10.4633    4.6050  -25.8538 C   0  0  0  0  0  0  0  0  0  0  0  0
   -8.1691    1.3860  -29.3060 C   0  0  0  0  0  0  0  0  0  0  0  0
   -5.8991    4.0039  -31.6448 C   0  0  0  0  0  0  0  0  0  0  0  0
   -6.0049   -1.1733  -30.8864 O   0  0  0  0  0  0  0  0  0  0  0  0
   -9.1701    6.9137  -27.3174 N   0  0  0  0  0  0  0  0  0  0  0  0
   -7.5540    1.4340  -30.7270 C   0  0  0  0  0  0  0  0  0  0  0  0
  -10.8245    2.8583  -30.2396 O   0  0  0  0  0  0  0  0  0  0  0  0
  -10.8379    5.0084  -27.2529 C   0  0  0  0  0  0  0  0  0  0  0  0
   -7.3713    3.8601  -31.4725 C   0  0  0  0  0  0  0  0  0  0  0  0
   -7.9032    6.3277  -29.0982 N   0  0  0  0  0  0  0  0  0  0  0  0
  1 19  2  0
  1 24  1  0
  2  4  1  0
  2  8  1  0
  2 11  1  0
  3  9  1  0
  3 13  1  0
  3 20  1  0
  4 23  1  0
  5  9  1  0
  6  9  1  0
  7 11  2  0
  7 19  1  0
  7 22  1  0
  8 14  1  0
  8 21  2  0
  9 18  2  0
 10 12  1  0
 10 13  1  0
 10 20  1  0
 10 23  1  0
 11 24  2  0
 12 13  1  0
 14 22  1  0
 15 22  1  0
 16 20  1  0
 17 23  1  0
M  END
$$$$
