
     RDKit          3D

 18 19  0  0  0  0  0  0  0  0999 V2000
   -7.6210    5.1594  -29.1295 C   0  0  0  0  0  0  0  0  0  0  0  0
   -8.4371    4.7688  -28.0651 O   0  0  0  0  0  0  0  0  0  0  0  0
   -9.8847    3.4430  -29.5894 C   0  0  0  0  0  0  0  0  0  0  0  0
  -10.5502    4.6995  -26.9477 C   0  0  0  0  0  0  0  0  0  0  0  0
  -11.0949    2.8615  -29.7990 O   0  0  0  0  0  0  0  0  0  0  0  0
   -8.7730    1.0942  -32.3344 O   0  0  0  0  0  0  0  0  0  0  0  0
   -7.8136    2.5407  -30.6599 O   0  0  0  0  0  0  0  0  0  0  0  0
   -7.5848    5.0946  -31.5225 O   0  0  0  0  0  0  0  0  0  0  0  0
   -7.3644    1.5022  -31.7118 P   0  0  0  0  0  0  0  0  0  0  0  0
   -9.5352    5.6046  -30.4360 O   0  0  0  0  0  0  0  0  0  0  0  0
   -7.5585    6.4914  -28.9588 F   0  0  0  0  0  0  0  0  0  0  0  0
   -9.7216    5.2915  -28.0830 C   0  0  0  0  0  0  0  0  0  0  0  0
  -11.2462    5.6699  -26.1870 O   0  0  0  0  0  0  0  0  0  0  0  0
   -8.9536    3.4503  -30.7448 C   0  0  0  0  0  0  0  0  0  0  0  0
  -10.1858    4.8870  -29.3905 C   0  0  0  0  0  0  0  0  0  0  0  0
   -8.3139    4.7372  -30.4209 C   0  0  0  0  0  0  0  0  0  0  0  0
   -6.6669    2.4370  -32.7427 O   0  0  0  0  0  0  0  0  0  0  0  0
   -6.7230    0.5237  -30.8087 O   0  0  0  0  0  0  0  0  0  0  0  0
  1  2  1  0
  1 11  1  0
  1 16  1  0
  2 12  1  0
  3  5  1  0
  3 14  1  0
  3 15  1  0
  4 12  1  0
  4 13  1  0
  6  9  1  0
  7  9  1  0
  7 14  1  0
  8 16  1  0
  9 17  1  0
  9 18  2  0
 10 15  1  0
 10 16  1  0
 12 15  1  0
 14 16  1  0
M  END
$$$$
