
     RDKit          3D

 21 21  0  0  0  0  0  0  0  0999 V2000
   -6.0207    2.1820  -31.9117 O   0  0  0  0  0  0  0  0  0  0  0  0
   -6.6372   -0.1522  -30.8414 O   0  0  0  0  0  0  0  0  0  0  0  0
   -8.7091    5.1771  -31.5049 N   0  0  0  0  0  0  0  0  0  0  0  0
   -7.4772    2.7061  -28.8776 C   0  0  0  0  0  0  0  0  0  0  0  0
   -9.4170    4.8675  -28.5404 C   0  0  0  0  0  0  0  0  0  0  0  0
   -7.5462    3.9463  -29.8090 C   0  0  0  0  0  0  0  0  0  0  0  0
   -7.7724    3.8300  -33.2473 O   0  0  0  0  0  0  0  0  0  0  0  0
  -11.4376    4.1422  -26.7045 C   0  0  0  0  0  0  0  0  0  0  0  0
   -8.4778    1.2017  -32.0435 O   0  0  0  0  0  0  0  0  0  0  0  0
   -7.4733    6.0921  -28.9363 N   0  0  0  0  0  0  0  0  0  0  0  0
  -10.3385    3.8561  -28.8315 O   0  0  0  0  0  0  0  0  0  0  0  0
   -9.6393    5.6799  -27.5364 C   0  0  0  0  0  0  0  0  0  0  0  0
   -8.2913    4.1569  -31.0536 C   0  0  0  0  0  0  0  0  0  0  0  0
   -7.5550    4.7504  -32.1477 C   0  0  0  0  0  0  0  0  0  0  0  0
   -8.2525    5.0923  -29.1378 C   0  0  0  0  0  0  0  0  0  0  0  0
   -6.6516    0.1529  -33.3695 O   0  0  0  0  0  0  0  0  0  0  0  0
  -11.4880    6.4455  -26.0420 C   0  0  0  0  0  0  0  0  0  0  0  0
   -6.9864    0.8362  -32.0372 P   0  0  0  0  0  0  0  0  0  0  0  0
   -7.7540    6.9415  -27.9670 C   0  0  0  0  0  0  0  0  0  0  0  0
   -8.8474    6.7963  -27.2314 N   0  0  0  0  0  0  0  0  0  0  0  0
  -10.7455    5.4506  -26.8208 N   0  0  0  0  0  0  0  0  0  0  0  0
  1 18  2  0
  2 18  1  0
  3 13  1  0
  3 14  1  0
  4  6  1  0
  5 11  1  0
  5 12  1  0
  5 15  2  0
  6 13  1  0
  6 15  1  0
  7 14  1  0
  8 21  1  0
  9 18  1  0
 10 15  1  0
 10 19  1  0
 12 20  2  0
 12 21  1  0
 13 14  1  0
 16 18  1  0
 17 21  1  0
 19 20  1  0
M  END
$$$$
