
     RDKit          3D

 23 25  0  0  0  0  0  0  0  0999 V2000
   -8.4043    4.9054  -30.0336 C   0  0  0  0  0  0  0  0  0  0  0  0
  -11.1786    5.5004  -26.5970 O   0  0  0  0  0  0  0  0  0  0  0  0
   -7.0961   -1.9943  -31.8297 O   0  0  0  0  0  0  0  0  0  0  0  0
   -7.4508    2.6297  -30.8670 C   0  0  0  0  0  0  0  0  0  0  0  0
   -5.7039    1.6127  -32.1885 O   0  0  0  0  0  0  0  0  0  0  0  0
   -8.6050    5.7031  -28.9468 C   0  0  0  0  0  0  0  0  0  0  0  0
  -11.4189    3.4394  -28.6694 C   0  0  0  0  0  0  0  0  0  0  0  0
   -7.9191    6.7607  -28.6092 N   0  0  0  0  0  0  0  0  0  0  0  0
   -9.9995    3.9226  -28.7055 C   0  0  0  0  0  0  0  0  0  0  0  0
   -6.0240   -0.2904  -30.2813 O   0  0  0  0  0  0  0  0  0  0  0  0
   -8.3600    3.7528  -32.7238 O   0  0  0  0  0  0  0  0  0  0  0  0
   -9.2197    2.9652  -27.7711 C   0  0  0  0  0  0  0  0  0  0  0  0
  -10.1356    5.9511  -27.2501 C   0  0  0  0  0  0  0  0  0  0  0  0
   -7.3981    5.0373  -30.9936 C   0  0  0  0  0  0  0  0  0  0  0  0
   -9.6595    5.2480  -28.2613 C   0  0  0  0  0  0  0  0  0  0  0  0
   -9.4901    7.0562  -26.8317 C   0  0  0  0  0  0  0  0  0  0  0  0
   -8.3399    7.4603  -27.5605 C   0  0  0  0  0  0  0  0  0  0  0  0
   -7.3193    3.8077  -31.7610 C   0  0  0  0  0  0  0  0  0  0  0  0
   -6.9644    1.4826  -31.6761 N   0  0  0  0  0  0  0  0  0  0  0  0
   -8.8367    2.4936  -30.4405 C   0  0  0  0  0  0  0  0  0  0  0  0
   -9.4418    3.8555  -30.1279 C   0  0  0  0  0  0  0  0  0  0  0  0
   -7.3302   -0.7572  -32.1018 C   0  0  0  0  0  0  0  0  0  0  0  0
   -7.0357    0.1838  -30.9840 C   0  0  0  0  0  0  0  0  0  0  0  0
  1  6  2  0
  1 14  1  0
  1 21  1  0
  2 13  1  0
  3 22  1  0
  4 18  1  0
  4 19  1  0
  4 20  1  0
  5 19  1  0
  6  8  1  0
  6 15  1  0
  7  9  1  0
  8 17  2  0
  9 12  1  0
  9 15  1  0
  9 21  1  0
 10 23  1  0
 11 18  1  0
 13 15  2  0
 13 16  1  0
 14 18  1  0
 16 17  1  0
 19 23  1  0
 20 21  1  0
 22 23  1  0
M  END
$$$$
