
     RDKit          3D

 26 29  0  0  0  0  0  0  0  0999 V2000
   -7.5864    2.3192  -31.3679 N   0  0  0  0  0  0  0  0  0  0  0  0
  -10.5952    4.9149  -26.8531 C   0  0  0  0  0  0  0  0  0  0  0  0
  -11.2366    4.3253  -29.6889 O   0  0  0  0  0  0  0  0  0  0  0  0
   -8.3020    2.6496  -28.5880 C   0  0  0  0  0  0  0  0  0  0  0  0
   -8.0851    2.7330  -32.5629 O   0  0  0  0  0  0  0  0  0  0  0  0
   -5.8044   -0.9342  -34.4369 C   0  0  0  0  0  0  0  0  0  0  0  0
   -6.6412   -0.5858  -33.2396 C   0  0  0  0  0  0  0  0  0  0  0  0
   -9.2517    4.4418  -27.3221 C   0  0  0  0  0  0  0  0  0  0  0  0
   -9.4936    2.9866  -30.6187 C   0  0  0  0  0  0  0  0  0  0  0  0
   -6.8804    0.7081  -32.9197 C   0  0  0  0  0  0  0  0  0  0  0  0
   -7.5374    0.9972  -31.7578 C   0  0  0  0  0  0  0  0  0  0  0  0
  -11.5440    3.6674  -26.6753 C   0  0  0  0  0  0  0  0  0  0  0  0
   -9.8711    3.9393  -29.5813 C   0  0  0  0  0  0  0  0  0  0  0  0
   -8.5994    4.8756  -29.4981 C   0  0  0  0  0  0  0  0  0  0  0  0
   -8.3907    5.8647  -30.6009 C   0  0  0  0  0  0  0  0  0  0  0  0
   -8.4584    5.3968  -28.1053 C   0  0  0  0  0  0  0  0  0  0  0  0
  -10.3369    2.4498  -31.3161 O   0  0  0  0  0  0  0  0  0  0  0  0
   -8.2935    2.8236  -30.4517 N   0  0  0  0  0  0  0  0  0  0  0  0
   -6.0011   -0.4131  -35.4933 O   0  0  0  0  0  0  0  0  0  0  0  0
   -8.8216    6.7822  -28.0779 N   0  0  0  0  0  0  0  0  0  0  0  0
   -7.8124    3.5913  -29.6196 C   0  0  0  0  0  0  0  0  0  0  0  0
   -7.0940   -1.6244  -32.5356 C   0  0  0  0  0  0  0  0  0  0  0  0
   -9.5896    3.2642  -28.2231 C   0  0  0  0  0  0  0  0  0  0  0  0
   -4.8211   -1.8332  -34.3145 O   0  0  0  0  0  0  0  0  0  0  0  0
   -7.9786   -0.0635  -31.0055 C   0  0  0  0  0  0  0  0  0  0  0  0
   -7.7405   -1.3479  -31.3895 C   0  0  0  0  0  0  0  0  0  0  0  0
  1  5  1  0
  1 11  1  0
  1 18  1  0
  2  8  1  0
  2 12  1  0
  3 13  1  0
  4 21  1  0
  4 23  1  0
  6  7  1  0
  6 19  1  0
  6 24  2  0
  7 10  2  0
  7 22  1  0
  8 16  1  0
  8 23  1  0
  9 13  1  0
  9 17  2  0
  9 18  1  0
 10 11  1  0
 11 25  2  0
 13 14  1  0
 13 23  1  0
 14 15  1  0
 14 16  1  0
 14 21  1  0
 16 20  1  0
 18 21  1  0
 22 26  2  0
 25 26  1  0
M  END
$$$$
