
     RDKit          3D

 12 11  0  0  0  0  0  0  0  0999 V2000
  -10.0531    4.4673  -27.9691 C   0  0  0  0  0  0  0  0  0  0  0  0
   -8.9735    5.3609  -28.5060 C   0  0  0  0  0  0  0  0  0  0  0  0
   -7.7781    3.0097  -30.3240 O   0  0  0  0  0  0  0  0  0  0  0  0
   -8.4259    1.7724  -32.4127 O   0  0  0  0  0  0  0  0  0  0  0  0
   -9.9211    3.4935  -30.5969 O   0  0  0  0  0  0  0  0  0  0  0  0
   -7.3562    1.8907  -31.4678 P   0  0  0  0  0  0  0  0  0  0  0  0
  -10.8826    4.9620  -26.9572 O   0  0  0  0  0  0  0  0  0  0  0  0
   -6.2417    2.5898  -32.0680 O   0  0  0  0  0  0  0  0  0  0  0  0
   -8.4874    6.3026  -27.8492 C   0  0  0  0  0  0  0  0  0  0  0  0
   -8.8161    3.8936  -30.3128 C   0  0  0  0  0  0  0  0  0  0  0  0
   -6.8777    0.5667  -30.6199 O   0  0  0  0  0  0  0  0  0  0  0  0
   -8.3456    5.2284  -29.7930 C   0  0  0  0  0  0  0  0  0  0  0  0
  1  2  1  0
  1  7  1  0
  2  9  2  0
  2 12  1  0
  3  6  1  0
  3 10  1  0
  4  6  2  0
  5 10  2  0
  6  8  1  0
  6 11  1  0
 10 12  1  0
M  END
$$$$
