
     RDKit          3D

 14 15  0  0  0  0  0  0  0  0999 V2000
   -8.0640    5.7662  -29.3022 C   0  0  0  0  0  0  0  0  0  0  0  0
   -7.7672    4.9963  -30.3929 C   0  0  0  0  0  0  0  0  0  0  0  0
   -7.0748    1.9106  -31.7233 P   0  0  0  0  0  0  0  0  0  0  0  0
   -8.5537    3.8018  -30.5904 C   0  0  0  0  0  0  0  0  0  0  0  0
   -9.1371    5.2519  -28.3567 C   0  0  0  0  0  0  0  0  0  0  0  0
  -10.8562    3.8859  -27.8763 N   0  0  0  0  0  0  0  0  0  0  0  0
   -9.9167    4.1523  -28.7797 C   0  0  0  0  0  0  0  0  0  0  0  0
  -10.6775    4.8550  -26.9169 C   0  0  0  0  0  0  0  0  0  0  0  0
   -5.9718    2.5699  -32.0754 O   0  0  0  0  0  0  0  0  0  0  0  0
   -8.2690    2.7532  -31.3888 O   0  0  0  0  0  0  0  0  0  0  0  0
   -7.7839    1.1824  -32.9513 O   0  0  0  0  0  0  0  0  0  0  0  0
   -9.7340    3.4448  -29.9482 C   0  0  0  0  0  0  0  0  0  0  0  0
   -9.6453    5.7278  -27.2286 N   0  0  0  0  0  0  0  0  0  0  0  0
   -6.9506    0.6811  -30.5635 O   0  0  0  0  0  0  0  0  0  0  0  0
  1  2  1  0
  1  5  1  0
  2  4  2  0
  3  9  1  0
  3 10  1  0
  3 11  2  0
  3 14  1  0
  4 10  1  0
  4 12  1  0
  5  7  1  0
  5 13  2  0
  6  7  1  0
  6  8  2  0
  7 12  2  0
  8 13  1  0
M  END
$$$$
