
     RDKit          3D

 22 23  0  0  0  0  0  0  0  0999 V2000
   30.4807   24.8809    1.6474 C   0  0  0  0  0  0  0  0  0  0  0  0
   35.4051   24.6042    7.3756 C   0  0  0  0  0  0  0  0  0  0  0  0
   31.7485   25.6465   -0.2764 C   0  0  0  0  0  0  0  0  0  0  0  0
   33.7866   25.2284    5.5546 C   0  0  0  0  0  0  0  0  0  0  0  0
   31.3740   24.6219    0.5984 C   0  0  0  0  0  0  0  0  0  0  0  0
   33.4901   27.2075    6.8239 O   0  0  0  0  0  0  0  0  0  0  0  0
   33.2502   24.3342    4.7121 C   0  0  0  0  0  0  0  0  0  0  0  0
   32.2281   22.5539    2.6835 O   0  0  0  0  0  0  0  0  0  0  0  0
   28.5827   22.1820    1.4573 N   0  0  0  0  0  0  0  0  0  0  0  0
   31.6845   28.1848   -1.1899 Cl  0  0  0  0  0  0  0  0  0  0  0  0
   31.2066   23.1258    3.5354 S   0  0  0  0  0  0  0  0  0  0  0  0
   30.9803   25.1431    5.3315 C   0  0  0  0  0  0  0  0  0  0  0  0
   30.0349   23.8757    2.5761 N   0  0  0  0  0  0  0  0  0  0  0  0
   31.5472   26.5096    5.6384 C   0  0  0  0  0  0  0  0  0  0  0  0
   30.3180   27.1904    0.9128 C   0  0  0  0  0  0  0  0  0  0  0  0
   32.9783   26.3698    6.0822 C   0  0  0  0  0  0  0  0  0  0  0  0
   31.8716   24.4789    4.3556 N   0  0  0  0  0  0  0  0  0  0  0  0
   30.5456   22.3188    4.5383 O   0  0  0  0  0  0  0  0  0  0  0  0
   29.2692   22.9511    1.9878 C   0  0  0  0  0  0  0  0  0  0  0  0
   29.9431   26.1674    1.7879 C   0  0  0  0  0  0  0  0  0  0  0  0
   31.2222   26.9263   -0.1138 C   0  0  0  0  0  0  0  0  0  0  0  0
   35.2334   25.1632    5.9698 C   0  0  0  0  0  0  0  0  0  0  0  0
  1  5  1  0
  1 13  1  0
  1 20  2  0
  2 22  1  0
  3  5  2  0
  3 21  1  0
  4  7  2  0
  4 16  1  0
  4 22  1  0
  6 16  2  0
  7 17  1  0
  8 11  2  0
  9 19  3  0
 10 21  1  0
 11 13  1  0
 11 17  1  0
 11 18  2  0
 12 14  1  0
 12 17  1  0
 13 19  1  0
 14 16  1  0
 15 20  1  0
 15 21  2  0
M  END
$$$$
