
     RDKit          3D

 21 22  0  0  0  0  0  0  0  0999 V2000
   29.7747   22.1029    2.9651 O   0  0  0  0  0  0  0  0  0  0  0  0
   30.9311   27.9545   -0.0969 C   0  0  0  0  0  0  0  0  0  0  0  0
   29.3805   25.6499   -0.3351 C   0  0  0  0  0  0  0  0  0  0  0  0
   30.6900   27.4068   -1.3547 C   0  0  0  0  0  0  0  0  0  0  0  0
   33.5822   24.9245    4.4556 C   0  0  0  0  0  0  0  0  0  0  0  0
   29.0409   25.5573    2.1813 C   0  0  0  0  0  0  0  0  0  0  0  0
   29.9136   26.2564   -1.4742 C   0  0  0  0  0  0  0  0  0  0  0  0
   29.1017   24.1078    2.1766 N   0  0  0  0  0  0  0  0  0  0  0  0
   32.6809   24.2545    5.3014 C   0  0  0  0  0  0  0  0  0  0  0  0
   32.1671   24.5098    2.5385 C   0  0  0  0  0  0  0  0  0  0  0  0
   31.2430   23.8787    3.3721 C   0  0  0  0  0  0  0  0  0  0  0  0
   31.5012   23.7363    4.7396 C   0  0  0  0  0  0  0  0  0  0  0  0
   33.3321   25.0430    3.0851 C   0  0  0  0  0  0  0  0  0  0  0  0
   29.6274   26.1811    0.9398 C   0  0  0  0  0  0  0  0  0  0  0  0
   33.4262   26.3658    7.2905 O   0  0  0  0  0  0  0  0  0  0  0  0
   32.9269   24.0997    6.7995 C   0  0  2  0  0  0  0  0  0  0  0  0
   32.4635   25.3018    7.5322 N   0  0  0  0  0  0  0  0  0  0  0  0
   34.3676   23.6384    7.1385 C   0  0  0  0  0  0  0  0  0  0  0  0
   30.3990   27.3490    1.0430 C   0  0  0  0  0  0  0  0  0  0  0  0
   30.0016   23.3003    2.8219 C   0  0  0  0  0  0  0  0  0  0  0  0
   34.6237   23.3488    8.9251 S   0  0  0  0  0  0  0  0  0  0  0  0
  1 20  2  0
  2  4  2  0
  2 19  1  0
  3  7  2  0
  3 14  1  0
  4  7  1  0
  5  9  2  0
  5 13  1  0
  6  8  1  0
  6 14  1  0
  8 20  1  0
  9 12  1  0
  9 16  1  0
 10 11  1  0
 10 13  2  0
 11 12  2  0
 11 20  1  0
 14 19  2  0
 15 17  1  0
 16 17  1  0
 16 18  1  6
 18 21  1  0
M  END
$$$$
