
     RDKit          3D

 14 14  0  0  0  0  0  0  0  0999 V2000
   -6.3737   20.8342   23.7120 C   0  0  0  0  0  0  0  0  0  0  0  0
   -4.2608   21.5428   22.9991 C   0  0  2  0  0  0  0  0  0  0  0  0
   -3.0767   19.2246   22.9088 C   0  0  0  0  0  0  0  0  0  0  0  0
   -7.4569   17.0085   26.4091 O   0  0  0  0  0  0  0  0  0  0  0  0
   -5.8874   18.3965   24.3308 C   0  0  0  0  0  0  0  0  0  0  0  0
   -5.6494   21.9259   23.1281 O   0  0  0  0  0  0  0  0  0  0  0  0
   -9.7975   15.8543   25.6626 O   0  0  0  0  0  0  0  0  0  0  0  0
   -5.5727   19.5773   23.4081 C   0  0  2  0  0  0  0  0  0  0  0  0
   -9.0100   16.1409   24.7630 C   0  0  0  0  0  0  0  0  0  0  0  0
   -4.7291   21.0947   20.2331 S   0  0  0  0  0  0  0  0  0  0  0  0
   -7.3290   17.8966   24.1723 C   0  0  0  0  0  0  0  0  0  0  0  0
   -3.7713   21.8653   21.5788 C   0  0  0  0  0  0  0  0  0  0  0  0
   -4.1474   20.1059   23.5320 C   0  0  2  0  0  0  0  0  0  0  0  0
   -7.6079   16.6672   25.0368 C   0  0  1  0  0  0  0  0  0  0  0  0
  1  6  1  0
  1  8  1  0
  2  6  1  0
  2 12  1  6
  2 13  1  0
 13  3  1  6
 14  4  1  1
  8  5  1  1
  5 11  1  0
  7  9  2  0
  8 13  1  0
  9 14  1  0
 10 12  1  0
 11 14  1  0
M  END
$$$$
