
     RDKit          3D

 14 14  0  0  0  0  0  0  0  0999 V2000
  -14.4947    2.1330  -22.7651 C   0  0  0  0  0  0  0  0  0  0  0  0
  -10.3744    5.0784  -22.5087 O   0  0  0  0  0  0  0  0  0  0  0  0
  -12.7664    3.7769  -21.9627 C   0  0  0  0  0  0  0  0  0  0  0  0
  -11.4245    4.5542  -21.5268 C   0  0  0  0  0  0  0  0  0  0  0  0
  -10.5996    6.1875  -19.9223 N   0  0  0  0  0  0  0  0  0  0  0  0
  -14.9351    0.7869  -23.1147 C   0  0  0  0  0  0  0  0  0  0  0  0
  -13.1415    2.4218  -22.3447 N   0  0  0  0  0  0  0  0  0  0  0  0
  -15.8399   -1.8495  -23.8022 N   0  0  0  0  0  0  0  0  0  0  0  0
  -14.5716   -1.6598  -23.4441 C   0  0  0  0  0  0  0  0  0  0  0  0
  -12.8459   -0.1615  -22.7032 N   0  0  0  0  0  0  0  0  0  0  0  0
  -11.8091    5.6128  -20.5428 C   0  0  0  0  0  0  0  0  0  0  0  0
  -14.1279   -0.3716  -23.1434 C   0  0  0  0  0  0  0  0  0  0  0  0
  -16.2144    0.5488  -23.5254 C   0  0  0  0  0  0  0  0  0  0  0  0
  -16.6657   -0.7392  -23.8756 N   0  0  0  0  0  0  0  0  0  0  0  0
  1  6  1  0
  1  7  2  3
  2  4  1  0
  3  4  1  0
  3  7  1  0
  4 11  1  0
  5 11  1  0
  6 12  4  0
  6 13  4  0
  8  9  4  0
  8 14  4  0
  9 12  4  0
 10 12  1  0
 13 14  4  0
M  END
$$$$
