
     RDKit          3D

 18 20  0  0  0  0  0  0  0  0999 V2000
  -14.7716   -1.2615  -23.3505 C   0  0  0  0  0  0  0  0  0  0  0  0
  -13.9832    3.7169  -22.2825 N   0  0  0  0  0  0  0  0  0  0  0  0
  -16.5903   -1.9236  -24.1938 N   0  0  0  0  0  0  0  0  0  0  0  0
  -12.1757    2.8249  -21.7297 N   0  0  0  0  0  0  0  0  0  0  0  0
  -13.4685   -1.1175  -22.8196 C   0  0  0  0  0  0  0  0  0  0  0  0
   -9.3716    4.1613  -21.5671 O   0  0  0  0  0  0  0  0  0  0  0  0
  -13.3954    2.5816  -22.2200 C   0  0  0  0  0  0  0  0  0  0  0  0
  -16.7992   -0.5970  -24.0178 C   0  0  0  0  0  0  0  0  0  0  0  0
  -10.5914    6.1597  -21.4341 O   0  0  0  0  0  0  0  0  0  0  0  0
  -13.0835    0.1829  -22.4725 C   0  0  0  0  0  0  0  0  0  0  0  0
  -10.5895    4.9515  -21.0347 P   0  0  0  0  0  0  0  0  0  0  0  0
  -15.6465   -0.1365  -23.4801 C   0  0  0  0  0  0  0  0  0  0  0  0
  -15.3277   -2.4169  -23.8013 N   0  0  0  0  0  0  0  0  0  0  0  0
  -15.2403    1.1124  -23.1029 C   0  0  0  0  0  0  0  0  0  0  0  0
  -13.2485    4.7505  -21.8962 C   0  0  0  0  0  0  0  0  0  0  0  0
  -10.5292    5.2043  -19.6400 O   0  0  0  0  0  0  0  0  0  0  0  0
  -12.0799    4.1420  -21.5879 C   0  0  0  0  0  0  0  0  0  0  0  0
  -13.9554    1.2751  -22.6001 C   0  0  0  0  0  0  0  0  0  0  0  0
  1  5  1  0
  1 12  1  0
  1 13  2  0
  2  7  2  0
  2 15  1  0
  3  8  1  0
  3 13  1  0
  4  7  1  0
  4 17  1  0
  5 10  2  0
  6 11  2  0
  7 18  1  0
  8 12  2  0
  9 11  1  0
 10 18  1  0
 11 16  1  0
 11 17  1  0
 12 14  1  0
 14 18  2  0
 15 17  2  0
M  END
$$$$
