
     RDKit          3D

 28 31  0  0  0  0  0  0  0  0999 V2000
   -6.5345   -1.2145   -0.3259 C   0  0  0  0  0  0  0  0  0  0  0  0
   -4.4699    0.7934    2.3198 C   0  0  0  0  0  0  0  0  0  0  0  0
    0.2203    1.9213   -1.5863 C   0  0  1  0  0  0  0  0  0  0  0  0
    0.9451    0.6287   -2.0809 C   0  0  1  0  0  0  0  0  0  0  0  0
   -5.6800   -0.8871    0.8948 C   0  0  2  0  0  0  0  0  0  0  0  0
    5.9877   -0.9309    0.6244 C   0  0  0  0  0  0  0  0  0  0  0  0
   -5.6261    1.4326    0.2871 O   0  0  0  0  0  0  0  0  0  0  0  0
   -4.8523    0.4094    0.8755 C   0  0  1  0  0  0  0  0  0  0  0  0
    4.2904    0.5105   -0.3586 C   0  0  0  0  0  0  0  0  0  0  0  0
   -3.5980    0.0702    0.0310 C   0  0  2  0  0  0  0  0  0  0  0  0
    1.2025   -0.3778   -0.9404 C   0  0  1  0  0  0  0  0  0  0  0  0
    1.7820    1.7435    0.2477 O   0  0  0  0  0  0  0  0  0  0  0  0
    5.6221    0.0982   -0.2612 C   0  0  0  0  0  0  0  0  0  0  0  0
   -1.2237    1.9584   -1.8748 N   0  0  0  0  0  0  0  0  0  0  0  0
    0.2477   -0.0009   -3.1260 O   0  0  0  0  0  0  0  0  0  0  0  0
   -5.1392   -1.8008   -0.1958 C   0  0  2  0  0  0  0  0  0  0  0  0
    3.2989   -0.0884    0.4365 C   0  0  0  0  0  0  0  0  0  0  0  0
   -1.8151    0.8384   -1.3802 O   0  0  0  0  0  0  0  0  0  0  0  0
    4.9927   -1.5382    1.4087 C   0  0  0  0  0  0  0  0  0  0  0  0
    0.4759    2.1614   -0.0873 C   0  0  0  0  0  0  0  0  0  0  0  0
   -2.9831    1.2617   -0.7219 C   0  0  0  0  0  0  0  0  0  0  0  0
   -4.0188   -1.0576   -0.9088 C   0  0  0  0  0  0  0  0  0  0  0  0
    8.1693   -1.4216   -0.3068 N   0  0  0  0  0  0  0  0  0  0  0  0
    3.6607   -1.1266    1.3099 C   0  0  0  0  0  0  0  0  0  0  0  0
    1.8498    0.3241    0.3015 C   0  0  2  0  0  0  0  0  0  0  0  0
   -0.0043   -0.9935   -0.5683 O   0  0  0  0  0  0  0  0  0  0  0  0
    7.9342   -1.7612    2.0054 N   0  0  0  0  0  0  0  0  0  0  0  0
    7.4009   -1.3721    0.7369 C   0  0  0  0  0  0  0  0  0  0  0  0
  5  1  1  6
 16  1  1  6
  8  2  1  1
  3  4  1  0
  3 14  1  1
  3 20  1  0
  4 11  1  0
  4 15  1  6
  5  8  1  0
  5 16  1  0
  6 13  1  0
  6 19  2  0
  6 28  1  0
  7  8  1  0
  8 10  1  0
  9 13  2  0
  9 17  1  0
 10 21  1  6
 10 22  1  0
 11 25  1  0
 11 26  1  1
 12 20  1  0
 12 25  1  0
 14 18  1  0
 16 22  1  0
 17 24  2  0
 25 17  1  6
 18 21  1  0
 19 24  1  0
 23 28  2  0
 27 28  1  0
M  END
