
     RDKit          3D

 18 17  0  0  0  0  0  0  0  0999 V2000
   -5.7892   -1.4065   -0.9449 C   0  0  0  0  0  0  0  0  0  0  0  0
   -2.7550   -1.1167    0.0699 C   0  0  0  0  0  0  0  0  0  0  0  0
   -3.4652   -0.3340   -1.0517 C   0  0  0  0  0  0  0  0  0  0  0  0
    6.3245   -1.0822    0.4190 C   0  0  0  0  0  0  0  0  0  0  0  0
   -5.2099   -0.1380    1.6682 N   0  0  0  0  0  0  0  0  0  0  0  0
    7.3730    0.5414   -1.1861 C   0  0  0  0  0  0  0  0  0  0  0  0
   -4.9811   -0.1004   -0.8259 C   0  0  2  0  0  0  0  0  0  0  0  0
   -6.6411    1.4275    0.3994 C   0  0  0  0  0  0  0  0  0  0  0  0
    6.1187   -0.2870   -0.8782 C   0  0  0  0  0  0  0  0  0  0  0  0
    4.8794    0.6348   -0.8002 C   0  0  0  0  0  0  0  0  0  0  0  0
   -5.2833    0.7082    0.4718 C   0  0  1  0  0  0  0  0  0  0  0  0
    2.2810    1.2101    1.1125 C   0  0  0  0  0  0  0  0  0  0  0  0
    0.9897    1.5595    0.3464 C   0  0  0  0  0  0  0  0  0  0  0  0
   -0.3628   -0.3843   -0.6201 C   0  0  0  0  0  0  0  0  0  0  0  0
    3.5425   -0.1365   -0.7016 C   0  0  0  0  0  0  0  0  0  0  0  0
    2.9365   -0.1279    0.7159 C   0  0  0  0  0  0  0  0  0  0  0  0
   -1.3273   -1.5448   -0.3157 C   0  0  0  0  0  0  0  0  0  0  0  0
   -0.1628    0.5597    0.5786 C   0  0  0  0  0  0  0  0  0  0  0  0
  7  1  1  1
  2  3  1  0
  2 17  1  0
  3  7  1  0
  4  9  1  0
  5 11  1  0
  6  9  1  0
  7 11  1  0
 11  8  1  6
  9 10  1  0
 10 15  1  0
 12 13  1  0
 12 16  1  0
 13 18  1  0
 14 17  1  0
 14 18  1  0
 15 16  1  0
M  END
