
     RDKit          3D

 26 30  0  0  0  0  0  0  0  0999 V2000
    5.8435    8.4275   23.1201 C   0  0  0  0  0  0  0  0  0  0  0  0
   10.5429    8.9661   20.3107 C   0  0  0  0  0  0  0  0  0  0  0  0
   10.7754    8.2478   19.1958 N   0  0  0  0  0  0  0  0  0  0  0  0
    3.4980    8.2525   24.5140 C   0  0  0  0  0  0  0  0  0  0  0  0
    4.2571    7.1215   24.2844 C   0  0  0  0  0  0  0  0  0  0  0  0
   10.9892   10.7836   21.6918 C   0  0  0  0  0  0  0  0  0  0  0  0
    2.2351    8.1359   25.2639 C   0  0  0  0  0  0  0  0  0  0  0  0
    1.8182    9.1197   26.1018 N   0  0  0  0  0  0  0  0  0  0  0  0
    9.7990   10.5692   22.2269 N   0  0  0  0  0  0  0  0  0  0  0  0
    7.3648    7.5464   21.5291 C   0  0  0  0  0  0  0  0  0  0  0  0
   11.8178    8.5479   18.5001 C   0  0  0  0  0  0  0  0  0  0  0  0
   12.7901   10.1013   20.1935 C   0  0  0  0  0  0  0  0  0  0  0  0
   12.8725    9.3279   18.9561 C   0  0  0  0  0  0  0  0  0  0  0  0
   13.7732    9.1750   16.8209 C   0  0  0  0  0  0  0  0  0  0  0  0
    5.0974    9.5728   23.3343 C   0  0  0  0  0  0  0  0  0  0  0  0
   12.7608    8.3540   16.3917 C   0  0  0  0  0  0  0  0  0  0  0  0
   11.4087    9.9195   20.7238 C   0  0  0  0  0  0  0  0  0  0  0  0
   13.8691    9.6561   18.0756 C   0  0  0  0  0  0  0  0  0  0  0  0
    6.9903    8.4989   22.4492 C   0  0  0  0  0  0  0  0  0  0  0  0
    7.8022    9.5342   22.6688 N   0  0  0  0  0  0  0  0  0  0  0  0
    8.9645    9.5928   21.9905 C   0  0  0  0  0  0  0  0  0  0  0  0
    3.9300    9.4646   24.0276 C   0  0  0  0  0  0  0  0  0  0  0  0
   11.7604    8.0624   17.2397 C   0  0  0  0  0  0  0  0  0  0  0  0
    5.4351    7.2039   23.5775 C   0  0  0  0  0  0  0  0  0  0  0  0
    8.5426    7.6433   20.8035 C   0  0  0  0  0  0  0  0  0  0  0  0
    9.3596    8.7156   21.0060 C   0  0  0  0  0  0  0  0  0  0  0  0
  1 15  4  0
  1 19  1  0
  1 24  4  0
  2  3  2  0
  2 17  1  0
  2 26  1  0
  3 11  1  0
  4  5  4  0
  4  7  1  0
  4 22  4  0
  5 24  4  0
  6  9  1  0
  6 17  2  0
  7  8  1  0
  9 21  2  0
 10 19  4  0
 10 25  4  0
 11 13  4  0
 11 23  4  0
 12 13  1  0
 12 17  1  0
 13 18  4  0
 14 16  4  0
 14 18  4  0
 15 22  4  0
 16 23  4  0
 19 20  4  0
 20 21  4  0
 21 26  4  0
 25 26  4  0
M  END
$$$$
