
     RDKit          3D

 21 23  0  0  0  0  0  0  0  0999 V2000
    4.1977    8.6274   24.8221 N   0  0  0  0  0  0  0  0  0  0  0  0
    7.5899    8.6344   23.3375 C   0  0  0  0  0  0  0  0  0  0  0  0
    9.3798   11.4775   21.9901 C   0  0  0  0  0  0  0  0  0  0  0  0
   11.1714    8.7680   19.2205 C   0  0  0  0  0  0  0  0  0  0  0  0
    9.4050    9.3281   20.8996 C   0  0  0  0  0  0  0  0  0  0  0  0
    5.3100   10.2189   23.2992 C   0  0  0  0  0  0  0  0  0  0  0  0
    6.4498   10.5988   22.5755 C   0  0  0  0  0  0  0  0  0  0  0  0
   12.7631    7.4827   18.0699 N   0  0  0  0  0  0  0  0  0  0  0  0
    1.8627    8.5289   25.4992 C   0  0  0  0  0  0  0  0  0  0  0  0
   10.5471    9.6941   20.1682 C   0  0  0  0  0  0  0  0  0  0  0  0
    6.4489    8.2599   24.0591 C   0  0  0  0  0  0  0  0  0  0  0  0
   13.5116    8.7087   19.8781 N   0  0  0  0  0  0  0  0  0  0  0  0
    2.8747    9.1872   24.5740 C   0  0  0  0  0  0  0  0  0  0  0  0
   11.0963   10.9667   20.3685 C   0  0  0  0  0  0  0  0  0  0  0  0
   10.5162   11.8547   21.2733 C   0  0  0  0  0  0  0  0  0  0  0  0
   10.2396    8.0216   17.9768 S   0  0  0  0  0  0  0  0  0  0  0  0
   11.6543    7.2394   17.4082 C   0  0  0  0  0  0  0  0  0  0  0  0
    7.6079    9.8099   22.5765 C   0  0  0  0  0  0  0  0  0  0  0  0
   12.4859    8.3541   19.0869 C   0  0  0  0  0  0  0  0  0  0  0  0
    5.2768    9.0259   24.0256 C   0  0  0  0  0  0  0  0  0  0  0  0
    8.8041   10.2090   21.8176 C   0  0  0  0  0  0  0  0  0  0  0  0
  1 13  1  0
  1 20  1  0
  2 11  1  0
  2 18  2  0
  3 15  2  0
  3 21  1  0
  4 10  1  0
  4 16  1  0
  4 19  2  0
  5 10  1  0
  5 21  2  0
  6  7  2  0
  6 20  1  0
  7 18  1  0
  8 17  2  0
  8 19  1  0
  9 13  1  0
 10 14  2  0
 11 20  2  0
 12 19  1  0
 14 15  1  0
 16 17  1  0
 18 21  1  0
M  END
$$$$
