
     RDKit          3D

 23 25  0  0  0  0  0  0  0  0999 V2000
    9.1724   10.4388   22.1077 C   0  0  0  0  0  0  0  0  0  0  0  0
   11.7106    6.3607   20.8337 O   0  0  0  0  0  0  0  0  0  0  0  0
    5.4616    7.9338   23.9409 C   0  0  0  0  0  0  0  0  0  0  0  0
    4.4978    8.9106   23.6588 C   0  0  0  0  0  0  0  0  0  0  0  0
   10.9695    7.0969   16.4572 C   0  0  0  0  0  0  0  0  0  0  0  0
   13.0847    8.4839   20.5656 O   0  0  0  0  0  0  0  0  0  0  0  0
    7.1163    9.1434   22.6360 C   0  0  0  0  0  0  0  0  0  0  0  0
    3.0305    8.8827   25.7285 C   0  0  0  0  0  0  0  0  0  0  0  0
    2.4413    8.0644   26.4276 O   0  0  0  0  0  0  0  0  0  0  0  0
    3.0988    8.7857   24.2162 C   0  0  0  0  0  0  0  0  0  0  0  0
   10.5181    8.6151   21.1416 C   0  0  0  0  0  0  0  0  0  0  0  0
    3.6128    9.9839   26.2897 N   0  0  0  0  0  0  0  0  0  0  0  0
    4.8520   10.0008   22.8546 C   0  0  0  0  0  0  0  0  0  0  0  0
    8.4716    9.2482   22.1043 C   0  0  0  0  0  0  0  0  0  0  0  0
    6.7590    8.0497   23.4338 C   0  0  0  0  0  0  0  0  0  0  0  0
    9.2662    8.1933   21.5511 C   0  0  0  0  0  0  0  0  0  0  0  0
   11.5249    9.1972   17.8246 S   0  0  0  0  0  0  0  0  0  0  0  0
   11.1191    8.4603   16.3352 C   0  0  0  0  0  0  0  0  0  0  0  0
    6.1501   10.1158   22.3478 C   0  0  0  0  0  0  0  0  0  0  0  0
   11.5004    7.6982   18.6494 C   0  0  0  0  0  0  0  0  0  0  0  0
   11.1914    6.6564   17.7936 C   0  0  0  0  0  0  0  0  0  0  0  0
   10.7409   10.2813   21.4433 S   0  0  0  0  0  0  0  0  0  0  0  0
   11.8613    7.7322   20.3871 S   0  0  0  0  0  0  0  0  0  0  0  0
  1 14  2  0
  1 22  1  0
  2 23  2  0
  3  4  1  0
  3 15  2  0
  4 10  1  0
  4 13  2  0
  5 18  2  0
  5 21  1  0
  6 23  2  0
  7 14  1  0
  7 15  1  0
  7 19  2  0
  8  9  2  0
  8 10  1  0
  8 12  1  0
 11 16  2  0
 11 22  1  0
 11 23  1  0
 13 19  1  0
 14 16  1  0
 17 18  1  0
 17 20  1  0
 20 21  2  0
 20 23  1  0
M  END
$$$$
