
     RDKit          3D

 38 41  0  0  0  0  0  0  0  0999 V2000
   -7.7260   -0.6162    0.0790 N   0  0  0  0  0  0  0  0  0  0  0  0
    1.8819    2.2221    1.5024 C   0  0  0  0  0  0  0  0  0  0  0  0
    5.1821    0.9364    1.6385 C   0  0  0  0  0  0  0  0  0  0  0  0
   -5.4920    0.2964   -0.4485 C   0  0  0  0  0  0  0  0  0  0  0  0
    0.1754    0.5108   -0.0228 N   0  0  0  0  0  0  0  0  0  0  0  0
    5.6100   -1.5856    0.5687 C   0  0  0  0  0  0  0  0  0  0  0  0
    7.6801   -1.1359   -0.4657 C   0  0  2  0  0  0  0  0  0  0  0  0
    2.5635    2.9999    2.2238 O   0  0  0  0  0  0  0  0  0  0  0  0
    6.5373   -0.6009    0.3614 C   0  0  0  0  0  0  0  0  0  0  0  0
    4.4467   -1.3631    1.3030 C   0  0  0  0  0  0  0  0  0  0  0  0
    1.1189   -0.0661    0.8934 C   0  0  0  0  0  0  0  0  0  0  0  0
   -4.2775    0.2210   -1.3902 C   0  0  0  0  0  0  0  0  0  0  0  0
    1.2179   -1.3207    0.9826 O   0  0  0  0  0  0  0  0  0  0  0  0
  -10.1367   -1.0948    0.6980 C   0  0  0  0  0  0  0  0  0  0  0  0
   -0.2698   -0.2524   -1.1981 C   0  0  0  0  0  0  0  0  0  0  0  0
    7.2931    1.6851    0.6860 O   0  0  0  0  0  0  0  0  0  0  0  0
    7.2623   -2.6227   -0.7190 C   0  0  0  0  0  0  0  0  0  0  0  0
    4.2270   -0.0836    1.8501 C   0  0  0  0  0  0  0  0  0  0  0  0
   -6.5244   -0.8125   -0.7387 C   0  0  1  0  0  0  0  0  0  0  0  0
    6.3486    0.6823    0.8929 C   0  0  0  0  0  0  0  0  0  0  0  0
    2.9573    0.2121    2.6034 C   0  0  0  0  0  0  0  0  0  0  0  0
   -3.3166    1.4050   -1.2073 C   0  0  0  0  0  0  0  0  0  0  0  0
   -9.0399   -2.1021   -1.1641 O   0  0  0  0  0  0  0  0  0  0  0  0
   -1.4374    2.3447    0.1874 C   0  0  0  0  0  0  0  0  0  0  0  0
    8.9453   -1.0845    0.2782 N   0  0  0  0  0  0  0  0  0  0  0  0
    7.8106   -0.3709   -1.7936 C   0  0  0  0  0  0  0  0  0  0  0  0
   -1.7621    3.8147    0.3031 C   0  0  0  0  0  0  0  0  0  0  0  0
   -2.6149    1.3910    0.1608 C   0  0  0  0  0  0  0  0  0  0  0  0
    1.9544    0.7920    1.6978 N   0  0  0  0  0  0  0  0  0  0  0  0
   -0.0197    0.4253   -2.5401 C   0  0  0  0  0  0  0  0  0  0  0  0
   -0.1484    1.9029    0.1529 C   0  0  0  0  0  0  0  0  0  0  0  0
    1.0353    2.8065    0.4067 C   0  0  0  0  0  0  0  0  0  0  0  0
   -5.7265   -2.9347   -1.4158 O   0  0  0  0  0  0  0  0  0  0  0  0
   -5.6072   -2.6440    0.9133 C   0  0  0  0  0  0  0  0  0  0  0  0
    0.8793   -0.7093   -2.0905 C   0  0  0  0  0  0  0  0  0  0  0  0
    5.9824   -2.8008   -0.0429 N   0  0  0  0  0  0  0  0  0  0  0  0
   -5.9438   -2.1852   -0.4759 C   0  0  0  0  0  0  0  0  0  0  0  0
   -8.9512   -1.3138   -0.1840 C   0  0  0  0  0  0  0  0  0  0  0  0
  1 19  1  0
  1 38  1  0
  2  8  2  0
  2 29  1  0
  2 32  1  0
  3 18  2  0
  3 20  1  0
  4 12  1  0
 19  4  1  1
  5 11  1  0
  5 15  1  0
  5 31  1  0
  6  9  1  0
  6 10  2  0
  6 36  1  0
  7  9  1  0
  7 17  1  0
  7 25  1  0
  7 26  1  6
  9 20  2  0
 10 18  1  0
 11 13  2  0
 11 29  1  0
 12 22  1  0
 14 38  1  0
 15 30  1  0
 15 35  1  0
 16 20  1  0
 17 36  1  0
 18 21  1  0
 19 37  1  0
 21 29  1  0
 22 28  1  0
 23 38  2  0
 24 27  1  0
 24 28  1  0
 24 31  2  3
 30 35  1  0
 31 32  1  0
 33 37  2  0
 34 37  1  0
M  END
