
     RDKit          3D

 32 35  0  0  0  0  0  0  0  0999 V2000
   -6.1210    0.0487    0.9120 C   0  0  0  0  0  0  0  0  0  0  0  0
   -8.3897   -0.7627    0.6388 C   0  0  0  0  0  0  0  0  0  0  0  0
    3.2236   -1.7563   -0.1166 N   0  0  0  0  0  0  0  0  0  0  0  0
   -2.5302    2.3716   -1.8287 O   0  0  0  0  0  0  0  0  0  0  0  0
    5.8296   -0.9518    0.5370 N   0  0  0  0  0  0  0  0  0  0  0  0
    4.2771    0.2833   -0.8702 N   0  0  0  0  0  0  0  0  0  0  0  0
    3.1094   -0.4377   -0.4345 C   0  0  0  0  0  0  0  0  0  0  0  0
    9.1430    0.8136   -1.2670 N   0  0  0  0  0  0  0  0  0  0  0  0
   -7.2476    0.2785   -1.2245 C   0  0  0  0  0  0  0  0  0  0  0  0
    0.7004   -0.6127   -0.0819 C   0  0  0  0  0  0  0  0  0  0  0  0
   -6.0991    0.4627   -0.4355 C   0  0  0  0  0  0  0  0  0  0  0  0
   -4.1488   -1.0638    2.3223 O   0  0  0  0  0  0  0  0  0  0  0  0
   -5.0832    1.0501    3.1590 O   0  0  0  0  0  0  0  0  0  0  0  0
   -2.3736    1.3580   -1.0960 C   0  0  0  0  0  0  0  0  0  0  0  0
   -0.6924   -0.1092   -0.1188 C   0  0  0  0  0  0  0  0  0  0  0  0
    7.9978    0.2157   -0.6591 C   0  0  0  0  0  0  0  0  0  0  0  0
   -8.3833   -0.3371   -0.6909 C   0  0  0  0  0  0  0  0  0  0  0  0
   -3.5090    1.1547    1.0376 N   0  0  0  0  0  0  0  0  0  0  0  0
    2.1596   -2.5125    0.2452 C   0  0  0  0  0  0  0  0  0  0  0  0
   -7.2621   -0.5696    1.4397 C   0  0  0  0  0  0  0  0  0  0  0  0
    7.2812   -2.2147    1.9912 N   0  0  0  0  0  0  0  0  0  0  0  0
    6.7098    0.5541   -1.0852 C   0  0  0  0  0  0  0  0  0  0  0  0
    5.6137   -0.0580   -0.4667 C   0  0  0  0  0  0  0  0  0  0  0  0
   -4.7076    0.2742    1.9280 S   0  0  0  0  0  0  0  0  0  0  0  0
    1.8377    0.1881   -0.3801 C   0  0  0  0  0  0  0  0  0  0  0  0
    7.0873   -1.2710    0.9406 C   0  0  0  0  0  0  0  0  0  0  0  0
   -3.5644    0.7599   -0.3753 C   0  0  1  0  0  0  0  0  0  0  0  0
   -4.9058    1.1809   -1.0257 C   0  0  0  0  0  0  0  0  0  0  0  0
   -1.0454    0.8352   -0.9382 N   0  0  0  0  0  0  0  0  0  0  0  0
    1.7151    1.6794   -0.5958 C   0  0  0  0  0  0  0  0  0  0  0  0
    0.8846   -1.9586    0.2614 C   0  0  0  0  0  0  0  0  0  0  0  0
    8.1595   -0.6884    0.3425 N   0  0  0  0  0  0  0  0  0  0  0  0
  1 11  1  0
  1 20  2  0
  1 24  1  0
  2 17  2  0
  2 20  1  0
  3  7  2  0
  3 19  1  0
  4 14  2  0
  5 23  2  0
  5 26  1  0
  6  7  1  0
  6 23  1  0
  7 25  1  0
  8 16  1  0
  9 11  2  0
  9 17  1  0
 10 15  1  0
 10 25  2  0
 10 31  1  0
 11 28  1  0
 12 24  2  0
 13 24  2  0
 27 14  1  6
 14 29  1  0
 15 29  2  3
 16 22  2  0
 16 32  1  0
 18 24  1  0
 18 27  1  0
 19 31  2  0
 21 26  1  0
 22 23  1  0
 25 30  1  0
 26 32  2  0
 27 28  1  0
M  END
