
     RDKit          3D

 32 35  0  0  0  0  0  0  0  0999 V2000
   -4.9279   -1.8841    1.6012 C   0  0  0  0  0  0  0  0  0  0  0  0
   -2.3673    0.4851   -3.7850 C   0  0  0  0  0  0  0  0  0  0  0  0
   -0.3040    1.2259   -2.6966 C   0  0  0  0  0  0  0  0  0  0  0  0
   -5.4362   -2.7492    2.6174 N   0  0  0  0  0  0  0  0  0  0  0  0
    4.8105   -0.6469    2.1824 C   0  0  0  0  0  0  0  0  0  0  0  0
    3.7124   -0.8791   -0.7503 O   0  0  0  0  0  0  0  0  0  0  0  0
   -7.1634   -1.1225    0.7147 C   0  0  0  0  0  0  0  0  0  0  0  0
   -0.2603    0.7393   -0.0859 C   0  0  1  0  0  0  0  0  0  0  0  0
    3.4086    2.5542   -1.3000 O   0  0  0  0  0  0  0  0  0  0  0  0
   -0.0004    2.1351    0.5011 C   0  0  0  0  0  0  0  0  0  0  0  0
   -4.8557   -0.4704   -0.0087 C   0  0  0  0  0  0  0  0  0  0  0  0
    6.8579   -1.5607    3.1138 C   0  0  0  0  0  0  0  0  0  0  0  0
   -3.5746   -0.7922    0.3934 C   0  0  0  0  0  0  0  0  0  0  0  0
    4.9539    0.8153    0.2121 O   0  0  0  0  0  0  0  0  0  0  0  0
    5.5614    0.0185    1.1894 C   0  0  0  0  0  0  0  0  0  0  0  0
   -1.0934    1.0745   -3.8568 C   0  0  0  0  0  0  0  0  0  0  0  0
   -2.8757    0.0481   -2.5555 C   0  0  0  0  0  0  0  0  0  0  0  0
   -2.3615   -0.2000   -0.0921 N   0  0  0  0  0  0  0  0  0  0  0  0
    1.0853    1.8036   -2.8080 C   0  0  0  0  0  0  0  0  0  0  0  0
   -2.1062    0.2572   -1.4069 C   0  0  0  0  0  0  0  0  0  0  0  0
   -1.2381   -0.0216    0.7386 N   0  0  0  0  0  0  0  0  0  0  0  0
   -0.8631    0.8168   -1.4651 C   0  0  0  0  0  0  0  0  0  0  0  0
    7.6702   -2.5515    4.3118 Cl  0  0  0  0  0  0  0  0  0  0  0  0
    2.0701    0.8833   -2.2428 N   0  0  0  0  0  0  0  0  0  0  0  0
    3.0678   -0.4399    2.3151 Cl  0  0  0  0  0  0  0  0  0  0  0  0
    3.1482    1.3253   -1.4049 C   0  0  0  0  0  0  0  0  0  0  0  0
   -3.6082   -1.6657    1.4214 N   0  0  0  0  0  0  0  0  0  0  0  0
    6.9575   -0.0891    1.1935 C   0  0  0  0  0  0  0  0  0  0  0  0
   -5.7060   -1.1803    0.7511 N   0  0  0  0  0  0  0  0  0  0  0  0
    5.4648   -1.4381    3.1348 C   0  0  0  0  0  0  0  0  0  0  0  0
    3.9420    0.3564   -0.6384 C   0  0  0  0  0  0  0  0  0  0  0  0
    7.6035   -0.8809    2.1465 C   0  0  0  0  0  0  0  0  0  0  0  0
  1  4  1  0
  1 27  2  0
  1 29  1  0
  2 16  2  0
  2 17  1  0
  3 16  1  0
  3 19  1  0
  3 22  2  0
  5 15  2  0
  5 25  1  0
  5 30  1  0
  6 31  2  0
  7 29  1  0
  8 10  1  1
  8 21  1  0
  8 22  1  0
  9 26  2  0
 11 13  2  0
 11 29  1  0
 12 23  1  0
 12 30  2  0
 12 32  1  0
 13 18  1  0
 13 27  1  0
 14 15  1  0
 14 31  1  0
 15 28  1  0
 17 20  2  0
 18 20  1  0
 18 21  1  0
 19 24  1  0
 20 22  1  0
 24 26  1  0
 26 31  1  0
 28 32  2  0
M  END
