
     RDKit          3D

  9  8  0  0  0  0  0  0  0  0999 V2000
   10.5331   -5.1242  -23.8455 O   0  0  0  0  0  0  0  0  0  0  0  0
    9.9647   -4.4900  -21.6773 C   0  0  0  0  0  0  0  0  0  0  0  0
   10.6337   -2.2673  -23.0504 O   0  0  0  0  0  0  0  0  0  0  0  0
   11.5339   -3.6577  -19.7379 O   0  0  0  0  0  0  0  0  0  0  0  0
   10.0903   -3.6436  -20.2197 S   0  0  0  0  0  0  0  0  0  0  0  0
   10.5747   -4.3078  -22.9412 C   0  0  0  0  0  0  0  0  0  0  0  0
    9.3534   -4.4358  -19.2529 O   0  0  0  0  0  0  0  0  0  0  0  0
   11.2835   -3.4135  -23.2401 C   0  0  0  0  0  0  0  0  0  0  0  0
    9.4983   -2.2887  -20.3665 O   0  0  0  0  0  0  0  0  0  0  0  0
  1  6  2  0
  2  5  1  0
  2  6  1  0
  3  8  1  0
  4  5  2  0
  5  7  2  0
  5  9  1  0
  6  8  1  0
M  END
$$$$
