
     RDKit          3D

 17 22  0  0  0  0  0  0  0  0999 V2000
   23.2383    5.2667   -8.5145 C   0  0  2  0  0  0  0  0  0  0  0  0
   27.5110    4.7582   -6.8450 O   0  0  0  0  0  0  0  0  0  0  0  0
   22.9682    4.0423   -7.5900 C   0  0  2  0  0  0  0  0  0  0  0  0
   26.4997    3.5087   -8.5453 C   0  0  0  0  0  0  0  0  0  0  0  0
   25.7262    6.3645   -9.0238 C   0  0  0  0  0  0  0  0  0  0  0  0
   25.0227    6.8465   -7.7855 C   0  0  1  0  0  0  0  0  0  0  0  0
   24.2359    2.0261   -6.6709 C   0  0  0  0  0  0  0  0  0  0  0  0
   23.0979    6.1757   -6.3318 C   0  0  1  0  0  0  0  0  0  0  0  0
   22.8690    4.6507   -6.1572 C   0  0  2  0  0  0  0  0  0  0  0  0
   23.6825    3.9295   -5.0864 C   0  0  0  0  0  0  0  0  0  0  0  0
   24.7694    5.4239   -8.3939 C   0  0  1  0  0  0  0  0  0  0  0  0
   24.6009    6.6596   -6.3639 C   0  0  0  0  0  0  0  0  0  0  0  0
   25.3078    4.0484   -7.9310 C   0  0  2  0  0  0  0  0  0  0  0  0
   26.5813    3.8515   -7.2642 C   0  0  0  0  0  0  0  0  0  0  0  0
   24.1447    3.0877   -7.7762 C   0  0  2  0  0  0  0  0  0  0  0  0
   22.4622    6.3493   -7.7377 C   0  0  0  0  0  0  0  0  0  0  0  0
   23.6327    2.4282   -5.3222 C   0  0  0  0  0  0  0  0  0  0  0  0
  1  3  1  0
  1 11  1  0
  1 16  1  1
  2 14  1  0
  3  9  1  1
  3 15  1  0
 13  4  1  6
  4 14  2  0
  6  5  1  1
 11  5  1  1
  6 11  1  0
  6 12  1  0
 15  7  1  1
  7 17  1  0
  8  9  1  0
  8 12  1  6
  8 16  1  0
  9 10  1  1
 10 17  1  0
 11 13  1  0
 13 14  1  0
 13 15  1  0
M  END
$$$$
