
     RDKit          3D

 29 30  0  0  0  0  0  0  0  0999 V2000
  -27.1071  -32.8674   40.0187 C   0  0  0  0  0  0  0  0  0  0  0  0
  -23.6311  -34.7281   42.2923 O   0  0  0  0  0  0  0  0  0  0  0  0
  -25.8547  -33.1765   39.5753 C   0  0  0  0  0  0  0  0  0  0  0  0
  -22.1217  -33.8603   34.6253 C   0  0  0  0  0  0  0  0  0  0  0  0
  -24.8593  -33.4836   35.3807 O   0  0  0  0  0  0  0  0  0  0  0  0
  -21.9120  -33.8203   38.2850 C   0  0  0  0  0  0  0  0  0  0  0  0
  -28.1165  -32.5229   39.0260 C   0  0  0  0  0  0  0  0  0  0  0  0
  -24.8697  -33.6441   40.4061 N   0  0  0  0  0  0  0  0  0  0  0  0
  -25.3090  -31.0266   42.1875 O   0  0  0  0  0  0  0  0  0  0  0  0
  -26.5506  -32.8284   37.2481 C   0  0  0  0  0  0  0  0  0  0  0  0
  -24.2033  -33.4565   37.7715 C   0  0  0  0  0  0  0  0  0  0  0  0
  -24.4851  -34.0296   42.6119 C   0  0  0  0  0  0  0  0  0  0  0  0
  -27.8432  -32.5087   37.6722 C   0  0  0  0  0  0  0  0  0  0  0  0
  -27.8858  -32.1589   42.5571 P   0  0  0  0  0  0  0  0  0  0  0  0
  -22.5776  -33.7580   36.0129 C   0  0  0  0  0  0  0  0  0  0  0  0
  -22.6227  -33.9420   40.9685 O   0  0  0  0  0  0  0  0  0  0  0  0
  -23.1810  -33.6817   38.7784 C   0  0  0  0  0  0  0  0  0  0  0  0
  -24.1899  -33.6060   42.5391 C   0  0  0  0  0  0  0  0  0  0  0  0
  -27.4596  -32.9814   41.3403 O   0  0  0  0  0  0  0  0  0  0  0  0
  -29.1068  -32.9108   43.2569 O   0  0  0  0  0  0  0  0  0  0  0  0
  -29.3962  -32.1837   39.3569 O   0  0  0  0  0  0  0  0  0  0  0  0
  -28.2929  -30.8265   42.1470 O   0  0  0  0  0  0  0  0  0  0  0  0
  -25.5822  -33.2088   38.2552 C   0  0  0  0  0  0  0  0  0  0  0  0
  -23.5707  -33.7663   40.0448 C   0  0  0  0  0  0  0  0  0  0  0  0
  -23.8635  -33.4950   36.3778 C   0  0  0  0  0  0  0  0  0  0  0  0
  -26.7026  -32.2589   43.6910 O   0  0  0  0  0  0  0  0  0  0  0  0
  -21.6404  -33.8727   36.9729 N   0  0  0  0  0  0  0  0  0  0  0  0
  -24.3603  -31.7126   44.4439 O   0  0  0  0  0  0  0  0  0  0  0  0
  -25.1007  -32.0632   43.2627 P   0  0  0  0  0  0  0  0  0  0  0  0
  1  3  1  0
  1  7  2  0
  1 19  1  0
  2 18  1  0
  3  8  1  0
  3 23  2  0
  4 15  1  0
  5 25  1  0
  6 17  1  0
  6 27  2  0
  7 13  1  0
  7 21  1  0
  8 24  1  0
  9 29  2  0
 10 13  2  0
 10 23  1  0
 11 17  2  0
 11 23  1  0
 11 25  1  0
 12 18  1  0
 14 19  1  0
 14 20  1  0
 14 22  2  0
 14 26  1  0
 15 25  2  0
 15 27  1  0
 16 24  2  0
 17 24  1  0
 26 29  1  0
 28 29  1  0
M  END
$$$$
