
     RDKit          3D

 13 14  0  0  0  0  0  0  0  0999 V2000
  -24.8308  -34.2213   39.9281 C   0  0  0  0  0  0  0  0  0  0  0  0
  -23.9596  -34.3462   42.0540 C   0  0  0  0  0  0  0  0  0  0  0  0
  -24.2346  -33.5713   36.3122 C   0  0  0  0  0  0  0  0  0  0  0  0
  -24.3267  -33.9482   38.6200 C   0  0  0  0  0  0  0  0  0  0  0  0
  -22.2288  -33.6438   37.5979 N   0  0  0  0  0  0  0  0  0  0  0  0
  -24.8431  -33.4542   35.0650 O   0  0  0  0  0  0  0  0  0  0  0  0
  -22.8722  -33.5032   36.4149 C   0  0  0  0  0  0  0  0  0  0  0  0
  -22.1906  -33.2791   35.2116 N   0  0  0  0  0  0  0  0  0  0  0  0
  -24.9762  -33.7334   37.4397 C   0  0  0  0  0  0  0  0  0  0  0  0
  -22.6249  -34.0223   39.9856 N   0  0  0  0  0  0  0  0  0  0  0  0
  -24.1718  -34.4376   43.1732 N   0  0  0  0  0  0  0  0  0  0  0  0
  -23.7350  -34.2162   40.6939 C   0  0  0  0  0  0  0  0  0  0  0  0
  -22.9490  -33.8516   38.6750 C   0  0  0  0  0  0  0  0  0  0  0  0
  1  4  1  0
  1 12  2  0
  2 11  3  0
  2 12  1  0
  3  6  1  0
  3  7  4  0
  3  9  4  0
  4  9  4  0
  4 13  4  0
  5  7  4  0
  5 13  4  0
  7  8  1  0
 10 12  1  0
 10 13  2  0
M  END
$$$$
