
     RDKit          3D

 13 14  0  0  0  0  0  0  0  0999 V2000
  -21.7194  -33.8245   38.0877 N   0  0  0  0  0  0  0  0  0  0  0  0
  -22.0567  -33.9022   36.8322 C   0  0  0  0  0  0  0  0  0  0  0  0
  -23.3088  -34.0928   36.3764 N   0  0  0  0  0  0  0  0  0  0  0  0
  -25.5376  -34.3924   36.9648 O   0  0  0  0  0  0  0  0  0  0  0  0
  -23.7879  -33.9307   40.8734 C   0  0  0  0  0  0  0  0  0  0  0  0
  -24.3842  -34.2147   37.3051 C   0  0  0  0  0  0  0  0  0  0  0  0
  -22.6313  -33.9059   38.9669 C   0  0  0  0  0  0  0  0  0  0  0  0
  -24.1538  -33.8137   42.2360 C   0  0  0  0  0  0  0  0  0  0  0  0
  -24.2631  -34.8855   43.0786 O   0  0  0  0  0  0  0  0  0  0  0  0
  -22.6247  -33.8232   40.3212 N   0  0  0  0  0  0  0  0  0  0  0  0
  -23.5586  -34.1534   34.9234 C   0  0  0  0  0  0  0  0  0  0  0  0
  -24.0034  -34.1005   38.5989 C   0  0  0  0  0  0  0  0  0  0  0  0
  -24.7268  -34.1331   39.8691 C   0  0  0  0  0  0  0  0  0  0  0  0
  1  2  4  0
  1  7  4  0
  2  3  4  0
  3  6  4  0
  3 11  1  0
  4  6  2  0
  5  8  1  0
  5 10  1  0
  5 13  2  0
  6 12  4  0
  7 10  2  0
  7 12  4  0
  8  9  1  0
 12 13  1  0
M  END
$$$$
