
     RDKit          3D

 22 24  0  0  0  0  0  0  0  0999 V2000
   40.2884   12.4359   17.9604 C   0  0  0  0  0  0  0  0  0  0  0  0
   48.6190   14.2846   17.5074 C   0  0  0  0  0  0  0  0  0  0  0  0
   45.8819   12.2741   14.9724 N   0  0  0  0  0  0  0  0  0  0  0  0
   48.1168   13.1931   15.4100 C   0  0  0  0  0  0  0  0  0  0  0  0
   48.6761   12.6569   13.8619 Cl  0  0  0  0  0  0  0  0  0  0  0  0
   43.4499   12.0603   11.7333 C   0  0  0  0  0  0  0  0  0  0  0  0
   41.5971   12.2688   15.4757 C   0  0  0  0  0  0  0  0  0  0  0  0
   47.3062   14.0749   17.9230 C   0  0  0  0  0  0  0  0  0  0  0  0
   40.1152   11.3102   17.1596 C   0  0  0  0  0  0  0  0  0  0  0  0
   46.3973   13.4265   17.0808 C   0  0  0  0  0  0  0  0  0  0  0  0
   43.6681   12.1978   14.0120 C   0  0  0  0  0  0  0  0  0  0  0  0
   44.5165   12.3177   15.1501 N   0  0  0  0  0  0  0  0  0  0  0  0
   41.5633   12.0811   12.9947 C   0  0  0  0  0  0  0  0  0  0  0  0
   49.0271   13.8409   16.2509 C   0  0  0  0  0  0  0  0  0  0  0  0
   41.7540   13.3963   16.3010 C   0  0  0  0  0  0  0  0  0  0  0  0
   40.7651   11.2283   15.9240 C   0  0  0  0  0  0  0  0  0  0  0  0
   41.1051   13.4801   17.5364 C   0  0  0  0  0  0  0  0  0  0  0  0
   42.1137   12.0117   11.7666 N   0  0  0  0  0  0  0  0  0  0  0  0
   44.2605   12.1564   12.7941 N   0  0  0  0  0  0  0  0  0  0  0  0
   39.4907   12.5359   19.4805 Cl  0  0  0  0  0  0  0  0  0  0  0  0
   42.2799   12.1817   14.1778 C   0  0  0  0  0  0  0  0  0  0  0  0
   46.7786   12.9942   15.8016 C   0  0  0  0  0  0  0  0  0  0  0  0
  1  9  1  0
  1 17  2  0
  1 20  1  0
  2  8  2  0
  2 14  1  0
  3 12  1  0
  3 22  1  0
  4  5  1  0
  4 14  2  0
  4 22  1  0
  6 18  2  0
  6 19  1  0
  7 15  2  0
  7 16  1  0
  7 21  1  0
  8 10  1  0
  9 16  2  0
 10 22  2  0
 11 12  1  0
 11 19  2  0
 11 21  1  0
 13 18  1  0
 13 21  2  0
 15 17  1  0
M  END
$$$$
