
     RDKit          3D

 19 21  0  0  0  0  0  0  0  0999 V2000
   46.1575   10.9222   17.2912 C   0  0  0  0  0  0  0  0  0  0  0  0
   41.9701   13.1785   11.6078 N   0  0  0  0  0  0  0  0  0  0  0  0
   41.2652   13.6545   15.2149 C   0  0  0  0  0  0  0  0  0  0  0  0
   43.0889   12.5315   14.0310 C   0  0  0  0  0  0  0  0  0  0  0  0
   41.0783   13.8017   17.8995 Cl  0  0  0  0  0  0  0  0  0  0  0  0
   41.3820   13.5470   12.7608 C   0  0  0  0  0  0  0  0  0  0  0  0
   41.8904   13.2563   14.0188 C   0  0  0  0  0  0  0  0  0  0  0  0
   44.8553   11.4224   15.3059 N   0  0  0  0  0  0  0  0  0  0  0  0
   47.8005   13.1276   16.8481 C   0  0  0  0  0  0  0  0  0  0  0  0
   41.8436   13.3240   16.4354 C   0  0  0  0  0  0  0  0  0  0  0  0
   45.9477   11.7291   16.1646 C   0  0  0  0  0  0  0  0  0  0  0  0
   46.8012   12.8275   15.9147 C   0  0  0  0  0  0  0  0  0  0  0  0
   43.6565   12.2157   15.2785 C   0  0  0  0  0  0  0  0  0  0  0  0
   43.0312   12.6033   16.4750 C   0  0  0  0  0  0  0  0  0  0  0  0
   47.1901   11.2073   18.1830 C   0  0  0  0  0  0  0  0  0  0  0  0
   43.7106   12.1607   12.8931 N   0  0  0  0  0  0  0  0  0  0  0  0
   48.0072   12.3133   17.9645 C   0  0  0  0  0  0  0  0  0  0  0  0
   43.1137   12.4961   11.7382 C   0  0  0  0  0  0  0  0  0  0  0  0
   46.5415   13.7399   14.8761 N   0  0  0  0  0  0  0  0  0  0  0  0
  1 11  2  0
  1 15  1  0
  2  6  1  0
  2 18  2  0
  3  7  1  0
  3 10  2  0
  4  7  1  0
  4 13  1  0
  4 16  2  0
  5 10  1  0
  6  7  2  0
  8 11  1  0
  8 13  1  0
  9 12  2  0
  9 17  1  0
 10 14  1  0
 11 12  1  0
 12 19  1  0
 13 14  2  0
 15 17  2  0
 16 18  1  0
M  END
$$$$
