
     RDKit          3D

  5  4  0  0  0  0  0  0  0  0999 V2000
    5.9544  -15.2640  -13.0494 O   0  0  0  0  0  0  0  0  0  0  0  0
    6.8468  -14.4294  -13.2863 C   0  0  0  0  0  0  0  0  0  0  0  0
    7.1265  -13.2705  -12.3275 C   0  0  0  0  0  0  0  0  0  0  0  0
    7.9989  -12.3978  -12.8082 O   0  0  0  0  0  0  0  0  0  0  0  0
    6.5941  -12.9870  -11.2819 O   0  0  0  0  0  0  0  0  0  0  0  0
  1  2  2  0
  2  3  1  0
  3  4  2  0
  3  5  1  0
M  END
$$$$
