
     RDKit          3D

  6  5  0  0  0  0  0  0  0  0999 V2000
    6.0509  -13.2102  -12.6514 C   0  0  0  0  0  0  0  0  0  0  0  0
    7.0277  -13.2512  -10.5472 O   0  0  0  0  0  0  0  0  0  0  0  0
    8.4363  -13.3649  -12.3147 O   0  0  0  0  0  0  0  0  0  0  0  0
    7.2618  -13.2714  -11.7529 C   0  0  0  0  0  0  0  0  0  0  0  0
    6.0814  -15.0927  -13.6959 O   0  0  0  0  0  0  0  0  0  0  0  0
    6.4191  -13.6913  -14.0363 C   0  0  0  0  0  0  0  0  0  0  0  0
  1  4  1  0
  1  6  1  0
  2  4  2  0
  3  4  1  0
  5  6  1  0
M  END
$$$$
