
     RDKit          3D

 16 17  0  0  0  0  0  0  0  0999 V2000
    1.1345    0.0998    0.0414 C   0  0  0  0  0  0  0  0  0  0  0  0
   -3.1911    0.4059    0.0986 C   0  0  2  0  0  0  0  0  0  0  0  0
    3.2105    0.4061   -1.1184 N   0  0  0  0  0  0  0  0  0  0  0  0
   -0.3037    0.2108    0.0755 N   0  0  0  0  0  0  0  0  0  0  0  0
   -2.4943   -0.9684    0.0330 C   0  0  1  0  0  0  0  0  0  0  0  0
    1.8562    0.5220   -1.0867 C   0  0  0  0  0  0  0  0  0  0  0  0
   -2.3638   -1.4021   -1.2982 O   0  0  0  0  0  0  0  0  0  0  0  0
   -0.2763    2.5156   -0.3720 O   0  0  0  0  0  0  0  0  0  0  0  0
    3.2346   -0.5535    1.0669 C   0  0  0  0  0  0  0  0  0  0  0  0
    1.8440   -0.4468    1.1227 C   0  0  0  0  0  0  0  0  0  0  0  0
   -4.5167    0.3256   -0.3637 O   0  0  0  0  0  0  0  0  0  0  0  0
    5.3342   -0.2141   -0.1578 N   0  0  0  0  0  0  0  0  0  0  0  0
    3.9122   -0.1155   -0.0764 C   0  0  0  0  0  0  0  0  0  0  0  0
   -2.3986    1.4737   -0.6740 C   0  0  0  0  0  0  0  0  0  0  0  0
   -1.1024   -0.8724    0.6708 C   0  0  0  0  0  0  0  0  0  0  0  0
   -0.9450    1.4488   -0.2988 C   0  0  0  0  0  0  0  0  0  0  0  0
  1  4  1  0
  1  6  2  0
  1 10  1  0
  2  5  1  0
  2 11  1  6
  2 14  1  0
  3  6  1  0
  3 13  2  0
  4 15  1  0
  4 16  1  0
  5  7  1  6
  5 15  1  0
  8 16  2  0
  9 10  2  0
  9 13  1  0
 12 13  1  0
 14 16  1  0
M  END
