
     RDKit          3D

 37 40  0  0  0  0  0  0  0  0999 V2000
    2.0088   -1.0066   -0.0197 C   0  0  0  0  0  0  0  0  0  0  0  0
    5.0008    1.6140   -0.6512 C   0  0  0  0  0  0  0  0  0  0  0  0
   -5.8421    0.0776    0.5332 C   0  0  2  0  0  0  0  0  0  0  0  0
    4.5241    0.3769   -0.8579 N   0  0  0  0  0  0  0  0  0  0  0  0
   -2.9535   -0.7850   -0.4333 N   0  0  0  0  0  0  0  0  0  0  0  0
    5.1360    3.7709   -2.0173 C   0  0  0  0  0  0  0  0  0  0  0  0
    4.2364    4.5428   -1.3061 F   0  0  0  0  0  0  0  0  0  0  0  0
    6.4193    4.0375   -1.5768 F   0  0  0  0  0  0  0  0  0  0  0  0
    4.8200    2.3256   -1.8167 C   0  0  0  0  0  0  0  0  0  0  0  0
    4.2431    1.5428   -2.7524 N   0  0  0  0  0  0  0  0  0  0  0  0
    3.5901   -2.9536    2.3202 C   0  0  0  0  0  0  0  0  0  0  0  0
    0.6738    2.5759    0.3897 C   0  0  0  0  0  0  0  0  0  0  0  0
    0.7156    1.3612   -2.6850 C   0  0  0  0  0  0  0  0  0  0  0  0
   -5.8105   -1.3902    1.0127 C   0  0  0  0  0  0  0  0  0  0  0  0
    5.5845   -0.9321    0.7401 O   0  0  0  0  0  0  0  0  0  0  0  0
    4.0839    0.3548   -2.1313 C   0  0  0  0  0  0  0  0  0  0  0  0
   -7.0549    0.5240   -0.1633 C   0  0  0  0  0  0  0  0  0  0  0  0
    0.1527    0.9135   -1.3644 C   0  0  0  0  0  0  0  0  0  0  0  0
    1.2879    2.9648    1.5796 C   0  0  0  0  0  0  0  0  0  0  0  0
    4.5349   -0.7063    0.0788 C   0  0  0  0  0  0  0  0  0  0  0  0
   -1.7590   -0.2761   -2.4730 C   0  0  0  0  0  0  0  0  0  0  0  0
    2.7236    2.4641    3.5084 C   0  0  0  0  0  0  0  0  0  0  0  0
    3.2224    2.7830    4.5027 N   0  0  0  0  0  0  0  0  0  0  0  0
   -4.8313   -2.2919    0.2377 C   0  0  0  0  0  0  0  0  0  0  0  0
    2.3204    0.7831    1.7603 C   0  0  0  0  0  0  0  0  0  0  0  0
   -3.3505   -1.9158    0.4310 C   0  0  0  0  0  0  0  0  0  0  0  0
    1.7458    0.3869    0.5355 C   0  0  0  0  0  0  0  0  0  0  0  0
   -1.6481   -0.2368   -0.0381 C   0  0  0  0  0  0  0  0  0  0  0  0
    3.5108   -2.8921    0.7872 C   0  0  0  0  0  0  0  0  0  0  0  0
   -0.9815    0.1858   -1.2994 C   0  0  0  0  0  0  0  0  0  0  0  0
   -5.8274    0.2441   -0.9375 N   0  0  0  0  0  0  0  0  0  0  0  0
    2.2134   -2.8783    2.9787 C   0  0  0  0  0  0  0  0  0  0  0  0
    2.1036    2.0670    2.2714 C   0  0  0  0  0  0  0  0  0  0  0  0
    0.8774    1.2895   -0.1305 C   0  0  0  0  0  0  0  0  0  0  0  0
   -2.8297   -1.1631   -1.8544 C   0  0  0  0  0  0  0  0  0  0  0  0
   -5.0969    1.1498    1.3444 C   0  0  0  0  0  0  0  0  0  0  0  0
    3.3557   -1.5107    0.3057 N   0  0  0  0  0  0  0  0  0  0  0  0
  1 27  1  0
  1 37  1  0
  2  4  1  0
  2  9  2  0
  3 14  1  0
  3 17  1  0
  3 31  1  0
  3 36  1  1
  4 16  1  0
  4 20  1  0
  5 26  1  0
  5 28  1  0
  5 35  1  0
  6  7  1  0
  6  8  1  0
  6  9  1  0
  9 10  1  0
 10 16  2  0
 11 29  1  0
 11 32  1  0
 12 19  2  0
 12 34  1  0
 13 18  1  0
 14 24  1  0
 15 20  2  0
 17 31  1  0
 18 30  2  3
 18 34  1  0
 19 33  1  0
 20 37  1  0
 21 30  1  0
 21 35  1  0
 22 23  3  0
 22 33  1  0
 24 26  1  0
 25 27  1  0
 25 33  2  0
 27 34  2  0
 28 30  1  0
 29 37  1  0
M  END
