
     RDKit          3D

 13 14  0  0  0  0  0  0  0  0999 V2000
    1.6129    0.4682    1.1689 C   0  0  0  0  0  0  0  0  0  0  0  0
    3.4090   -0.5981   -0.2439 C   0  0  0  0  0  0  0  0  0  0  0  0
    0.2675    0.7559    1.4073 C   0  0  0  0  0  0  0  0  0  0  0  0
   -0.3148   -0.4841   -0.5902 C   0  0  0  0  0  0  0  0  0  0  0  0
   -2.6309   -0.6914   -1.2705 C   0  0  0  0  0  0  0  0  0  0  0  0
   -0.7134    0.2801    0.5284 C   0  0  0  0  0  0  0  0  0  0  0  0
    3.9752    0.4699   -1.0603 N   0  0  0  0  0  0  0  0  0  0  0  0
    1.0033   -0.7490   -0.7967 N   0  0  0  0  0  0  0  0  0  0  0  0
   -3.0353    0.0663   -0.1610 C   0  0  0  0  0  0  0  0  0  0  0  0
   -2.0736    0.5519    0.7380 C   0  0  0  0  0  0  0  0  0  0  0  0
   -1.2765   -0.9651   -1.4844 C   0  0  0  0  0  0  0  0  0  0  0  0
   -4.4221    0.3430    0.0521 N   0  0  0  0  0  0  0  0  0  0  0  0
    1.9691   -0.3049    0.0541 C   0  0  0  0  0  0  0  0  0  0  0  0
  1  3  1  0
  1 13  2  0
  2  7  1  0
  2 13  1  0
  3  6  2  0
  4  6  1  0
  4  8  2  0
  4 11  1  0
  5  9  1  0
  5 11  2  0
  6 10  1  0
  8 13  1  0
  9 10  2  0
  9 12  1  0
M  END
