
     RDKit          3D

 15 17  0  0  0  0  0  0  0  0999 V2000
    2.0774   -0.4492    0.8887 C   0  0  0  0  0  0  0  0  0  0  0  0
   -0.9078    1.0043   -1.4918 O   0  0  0  0  0  0  0  0  0  0  0  0
    0.7217   -0.7473    1.1162 C   0  0  0  0  0  0  0  0  0  0  0  0
    4.9000    0.2124    0.3594 N   0  0  0  0  0  0  0  0  0  0  0  0
    3.8529    0.6974   -0.4417 N   0  0  0  0  0  0  0  0  0  0  0  0
   -0.2150   -0.2008    0.2457 C   0  0  0  0  0  0  0  0  0  0  0  0
   -4.2611   -0.0600   -0.4828 C   0  0  0  0  0  0  0  0  0  0  0  0
   -3.2964    0.6052   -1.2633 C   0  0  0  0  0  0  0  0  0  0  0  0
   -1.5841   -0.2909    0.1873 C   0  0  0  0  0  0  0  0  0  0  0  0
    2.4691    0.3840   -0.1971 C   0  0  0  0  0  0  0  0  0  0  0  0
   -3.8722   -0.8384    0.6316 C   0  0  0  0  0  0  0  0  0  0  0  0
   -2.5141   -0.9609    0.9790 C   0  0  0  0  0  0  0  0  0  0  0  0
    0.1486    0.6069   -0.8091 C   0  0  0  0  0  0  0  0  0  0  0  0
   -1.9584    0.4695   -0.9008 C   0  0  0  0  0  0  0  0  0  0  0  0
    1.4825    0.9179   -1.0570 C   0  0  0  0  0  0  0  0  0  0  0  0
  1  3  1  0
  1 10  2  0
  2 13  1  0
  2 14  1  0
  3  6  2  0
  4  5  1  0
  5 10  1  0
  6  9  1  0
  6 13  1  0
  7  8  1  0
  7 11  2  0
  8 14  2  0
  9 12  2  0
  9 14  1  0
 10 15  1  0
 11 12  1  0
 13 15  2  0
M  END
