
     RDKit          3D

 24 26  0  0  0  0  0  0  0  0999 V2000
   -2.5924   -1.9472    0.1498 C   0  0  0  0  0  0  0  0  0  0  0  0
    1.4911    1.5052   -0.2849 C   0  0  0  0  0  0  0  0  0  0  0  0
    3.0843   -0.3927   -0.8591 C   0  0  0  0  0  0  0  0  0  0  0  0
    0.7136   -0.7704   -0.0197 C   0  0  0  0  0  0  0  0  0  0  0  0
    3.3217   -1.7296   -0.9216 N   0  0  0  0  0  0  0  0  0  0  0  0
   -4.8725    1.6909   -0.6784 N   0  0  0  0  0  0  0  0  0  0  0  0
    6.2812    0.9386   -2.0451 N   0  0  0  0  0  0  0  0  0  0  0  0
    4.5232   -2.1907   -1.3503 C   0  0  0  0  0  0  0  0  0  0  0  0
   -5.0050   -0.5854   -0.9532 O   0  0  0  0  0  0  0  0  0  0  0  0
    5.4931   -1.3169   -1.7184 N   0  0  0  0  0  0  0  0  0  0  0  0
    0.2884    1.8066    1.7752 O   0  0  0  0  0  0  0  0  0  0  0  0
    5.2624    0.0195   -1.6583 C   0  0  0  0  0  0  0  0  0  0  0  0
   -4.0844    2.4551    0.0196 O   0  0  0  0  0  0  0  0  0  0  0  0
   -1.2443   -0.2503    1.3194 O   0  0  0  0  0  0  0  0  0  0  0  0
   -1.5150   -3.2161    0.8029 Cl  0  0  0  0  0  0  0  0  0  0  0  0
   -3.3623    0.4853    0.3749 C   0  0  0  0  0  0  0  0  0  0  0  0
   -3.2662   -0.9574    2.3599 C   0  0  0  0  0  0  0  0  0  0  0  0
   -4.4555    0.4372   -0.4664 C   0  0  0  0  0  0  0  0  0  0  0  0
    1.8131    0.0950   -0.4056 N   0  0  0  0  0  0  0  0  0  0  0  0
   -3.1732    1.7890    0.6760 N   0  0  0  0  0  0  0  0  0  0  0  0
    0.1262    1.5528    0.4023 C   0  0  2  0  0  0  0  0  0  0  0  0
   -0.4825    0.1572    0.1857 C   0  0  1  0  0  0  0  0  0  0  0  0
    4.0593    0.4790   -1.2291 N   0  0  0  0  0  0  0  0  0  0  0  0
   -2.5792   -0.6550    1.0171 C   0  0  1  0  0  0  0  0  0  0  0  0
  1 15  1  0
  1 24  1  0
  2 19  1  0
  2 21  1  0
  3  5  2  0
  3 19  1  0
  3 23  1  0
  4 19  1  0
  4 22  1  0
  5  8  1  0
  6 13  1  0
  6 18  1  0
  7 12  1  0
  8 10  2  0
  9 18  2  0
 10 12  1  0
 21 11  1  1
 12 23  2  0
 13 20  1  0
 22 14  1  1
 14 24  1  0
 16 18  1  0
 16 20  2  0
 16 24  1  0
 24 17  1  1
 21 22  1  0
M  END
