
     RDKit          3D

 22 25  0  0  0  0  0  0  0  0999 V2000
   -5.8717  -28.6048   -5.0604 N   0  0  0  0  0  0  0  0  0  0  0  0
   -2.3803  -30.3690  -10.3971 C   0  0  0  0  0  0  0  0  0  0  0  0
   -2.8372  -29.6121  -11.4759 C   0  0  0  0  0  0  0  0  0  0  0  0
   -1.1290  -30.7239  -16.4461 C   0  0  0  0  0  0  0  0  0  0  0  0
   -5.0684  -29.8135   -5.3410 C   0  0  0  0  0  0  0  0  0  0  0  0
   -2.7485  -29.1862  -13.9213 N   0  0  0  0  0  0  0  0  0  0  0  0
   -4.8534  -30.0831   -6.8491 C   0  0  0  0  0  0  0  0  0  0  0  0
   -4.2520  -28.3633   -9.9305 C   0  0  0  0  0  0  0  0  0  0  0  0
   -3.7752  -28.6041  -11.2292 C   0  0  0  0  0  0  0  0  0  0  0  0
   -0.8437  -31.1263  -17.8596 C   0  0  0  0  0  0  0  0  0  0  0  0
   -3.8216  -29.1242   -8.8320 C   0  0  0  0  0  0  0  0  0  0  0  0
   -1.9725  -29.7462  -14.8242 N   0  0  0  0  0  0  0  0  0  0  0  0
   -5.2125  -27.4565   -5.7148 C   0  0  0  0  0  0  0  0  0  0  0  0
   -2.8616  -30.1217   -9.1096 C   0  0  0  0  0  0  0  0  0  0  0  0
   -1.2331  -30.7767  -14.3700 C   0  0  0  0  0  0  0  0  0  0  0  0
   -1.9595  -29.6263  -16.1658 N   0  0  0  0  0  0  0  0  0  0  0  0
   -1.4060  -30.8809  -13.0803 N   0  0  0  0  0  0  0  0  0  0  0  0
   -2.3435  -30.8587   -8.1129 F   0  0  0  0  0  0  0  0  0  0  0  0
   -4.2812  -28.8926   -7.5230 N   0  0  0  0  0  0  0  0  0  0  0  0
   -0.6489  -31.4093  -15.4200 N   0  0  0  0  0  0  0  0  0  0  0  0
   -2.3365  -29.8676  -12.8233 C   0  0  0  0  0  0  0  0  0  0  0  0
   -5.0170  -27.6453   -7.2368 C   0  0  0  0  0  0  0  0  0  0  0  0
  1  5  1  0
  1 13  1  0
  2  3  2  0
  2 14  1  0
  3  9  1  0
  3 21  1  0
  4 10  1  0
  4 16  1  0
  4 20  2  0
  5  7  1  0
  6 12  1  0
  6 21  2  0
  7 19  1  0
  8  9  2  0
  8 11  1  0
 11 14  2  0
 11 19  1  0
 12 15  1  0
 12 16  1  0
 13 22  1  0
 14 18  1  0
 15 17  2  0
 15 20  1  0
 17 21  1  0
 19 22  1  0
M  END
$$$$
