
     RDKit          3D

 35 38  0  0  0  0  0  0  0  0999 V2000
   39.0802    3.3814   -3.2432 C   0  0  0  0  0  0  0  0  0  0  0  0
   37.5304    4.3988   -4.8185 C   0  0  0  0  0  0  0  0  0  0  0  0
   34.5396    3.5310   -6.9504 C   0  0  0  0  0  0  0  0  0  0  0  0
   28.0146   -1.5687   -9.5272 N   0  0  0  0  0  0  0  0  0  0  0  0
   32.2613    4.7778   -6.8285 C   0  0  0  0  0  0  0  0  0  0  0  0
   29.7576    3.1339  -10.3109 O   0  0  0  0  0  0  0  0  0  0  0  0
   38.5558    5.2615   -5.2258 C   0  0  0  0  0  0  0  0  0  0  0  0
   33.9990    6.9526   -3.7479 O   0  0  0  0  0  0  0  0  0  0  0  0
   30.5998    0.0890   -4.6099 C   0  0  0  0  0  0  0  0  0  0  0  0
   28.4320   -0.5679   -5.6802 C   0  0  0  0  0  0  0  0  0  0  0  0
   33.9764    5.2013   -5.2244 C   0  0  0  0  0  0  0  0  0  0  0  0
   29.8175    0.0238   -5.9225 C   0  0  0  0  0  0  0  0  0  0  0  0
   31.8546    1.3949   -7.2513 O   0  0  0  0  0  0  0  0  0  0  0  0
   28.6873    3.1154   -9.3604 C   0  0  1  0  0  0  0  0  0  0  0  0
   33.2820    6.2692   -4.6973 C   0  0  0  0  0  0  0  0  0  0  0  0
   31.6622    4.0464   -8.0136 C   0  0  0  0  0  0  0  0  0  0  0  0
   27.0522    1.5243   -8.4847 O   0  0  0  0  0  0  0  0  0  0  0  0
   36.2682    4.5390   -5.4297 N   0  0  0  0  0  0  0  0  0  0  0  0
   31.5185    5.8310   -6.2226 C   0  0  0  0  0  0  0  0  0  0  0  0
   28.8277    0.7693   -9.7453 O   0  0  0  0  0  0  0  0  0  0  0  0
   29.1698    3.6957   -8.0071 C   0  0  0  0  0  0  0  0  0  0  0  0
   28.3768   -0.4704   -9.6169 C   0  0  0  0  0  0  0  0  0  0  0  0
   30.7698    1.9512   -7.1264 C   0  0  0  0  0  0  0  0  0  0  0  0
   32.0327    6.5928   -5.1630 C   0  0  0  0  0  0  0  0  0  0  0  0
   35.8064    3.2844   -6.0898 C   0  0  0  0  0  0  0  0  0  0  0  0
   39.8270    5.1885   -4.6525 C   0  0  0  0  0  0  0  0  0  0  0  0
   40.0887    4.2475   -3.6600 C   0  0  0  0  0  0  0  0  0  0  0  0
   30.5131    3.2211   -7.6179 N   0  0  0  0  0  0  0  0  0  0  0  0
   27.5866    4.0045   -9.9485 C   0  0  0  0  0  0  0  0  0  0  0  0
   35.3595    6.4465   -3.9512 C   0  0  0  0  0  0  0  0  0  0  0  0
   29.6915    1.3475   -6.5305 N   0  0  0  0  0  0  0  0  0  0  0  0
   35.2481    5.0131   -4.4793 C   0  0  1  0  0  0  0  0  0  0  0  0
   37.8089    3.4569   -3.8189 C   0  0  0  0  0  0  0  0  0  0  0  0
   33.5355    4.4682   -6.3181 C   0  0  0  0  0  0  0  0  0  0  0  0
   28.0745    1.7192   -9.1333 C   0  0  0  0  0  0  0  0  0  0  0  0
  1 27  2  0
  1 33  1  0
  2  7  1  0
  2 18  1  0
  2 33  2  0
  3 25  1  0
  3 34  1  0
  4 22  3  0
  5 16  1  0
  5 19  1  0
  5 34  2  0
  6 14  1  0
  7 26  2  0
  8 15  1  0
  8 30  1  0
  9 12  1  0
 10 12  1  0
 11 15  2  0
 11 32  1  0
 11 34  1  0
 12 31  1  0
 13 23  2  0
 14 21  1  0
 14 29  1  6
 14 35  1  0
 15 24  1  0
 16 28  1  0
 17 35  2  0
 18 25  1  0
 18 32  1  0
 19 24  2  0
 20 22  1  0
 20 35  1  0
 21 28  1  0
 23 28  1  0
 23 31  1  0
 26 27  1  0
 32 30  1  6
M  END
$$$$
