
     RDKit          3D

  9  9  0  0  0  0  0  0  0  0999 V2000
   70.8022   54.8360   45.7271 C   0  0  0  0  0  0  0  0  0  0  0  0
   71.7017   53.7297   45.4356 N   0  0  0  0  0  0  0  0  0  0  0  0
   73.8634   54.3746   42.8904 S   0  0  0  0  0  0  0  0  0  0  0  0
   71.5853   53.2487   44.0578 C   0  0  0  0  0  0  0  0  0  0  0  0
   72.3753   55.8006   41.3607 C   0  0  0  0  0  0  0  0  0  0  0  0
   72.1598   54.2058   43.0542 C   0  0  0  0  0  0  0  0  0  0  0  0
   73.6826   55.5286   41.6679 C   0  0  0  0  0  0  0  0  0  0  0  0
   75.0724   56.2307   40.9442 Cl  0  0  0  0  0  0  0  0  0  0  0  0
   71.4866   55.0277   42.1668 C   0  0  0  0  0  0  0  0  0  0  0  0
  1  2  1  0
  2  4  1  0
  3  6  1  0
  3  7  1  0
  4  6  1  0
  5  7  2  0
  5  9  1  0
  6  9  2  0
  7  8  1  0
M  END
$$$$
