
     RDKit          3D

 17 18  0  0  0  0  0  0  0  0999 V2000
   70.5865   52.3840   43.1997 C   0  0  0  0  0  0  0  0  0  0  0  0
   71.0652   56.5067   44.0267 O   0  0  0  0  0  0  0  0  0  0  0  0
   72.0189   54.5413   42.9584 C   0  0  1  0  0  0  0  0  0  0  0  0
   70.9484   52.3522   44.6947 C   0  0  2  0  0  0  0  0  0  0  0  0
   73.7654   57.0756   39.8835 C   0  0  0  0  0  0  0  0  0  0  0  0
   71.4036   54.6311   45.4756 C   0  0  0  0  0  0  0  0  0  0  0  0
   74.5984   56.4737   40.8295 C   0  0  0  0  0  0  0  0  0  0  0  0
   70.3456   51.0982   45.3374 C   0  0  0  0  0  0  0  0  0  0  0  0
   76.2989   56.7446   40.6466 Cl  0  0  0  0  0  0  0  0  0  0  0  0
   71.4741   55.3486   44.1384 C   0  0  0  0  0  0  0  0  0  0  0  0
   74.9769   55.0557   42.8997 C   0  0  0  0  0  0  0  0  0  0  0  0
   74.0677   55.6788   41.8689 C   0  0  0  0  0  0  0  0  0  0  0  0
   70.8641   53.6777   42.4175 C   0  0  0  0  0  0  0  0  0  0  0  0
   72.6651   55.4448   41.9006 C   0  0  0  0  0  0  0  0  0  0  0  0
   70.4637   53.5066   45.4456 N   0  0  0  0  0  0  0  0  0  0  0  0
   72.3906   56.8948   39.9507 C   0  0  0  0  0  0  0  0  0  0  0  0
   71.8480   56.0887   40.9482 C   0  0  0  0  0  0  0  0  0  0  0  0
  1  4  1  0
  1 13  1  0
  2 10  2  0
  3 10  1  0
  3 13  1  0
  3 14  1  6
  4  8  1  1
  4 15  1  0
  5  7  1  0
  5 16  2  0
  6 10  1  0
  6 15  1  0
  7  9  1  0
  7 12  2  0
 11 12  1  0
 12 14  1  0
 14 17  2  0
 16 17  1  0
M  END
$$$$
