
     RDKit          3D

 12 11  0  0  0  0  0  0  0  0999 V2000
  137.3760   51.8314   31.6731 C   0  0  0  0  0  0  0  0  0  0  0  0
  134.2299   53.7692   33.2871 C   0  0  0  0  0  0  0  0  0  0  0  0
  133.1122   52.7990   32.9494 C   0  0  0  0  0  0  0  0  0  0  0  0
  131.9692   53.4381   32.2143 C   0  0  0  0  0  0  0  0  0  0  0  0
  136.5754   51.0845   32.6375 C   0  0  0  0  0  0  0  0  0  0  0  0
  129.7579   53.5245   30.5865 O   0  0  0  0  0  0  0  0  0  0  0  0
  128.6237   51.9796   31.9645 C   0  0  0  0  0  0  0  0  0  0  0  0
  129.7525   52.7851   31.5583 C   0  0  0  0  0  0  0  0  0  0  0  0
  135.9554   51.9734   33.6637 C   0  0  0  0  0  0  0  0  0  0  0  0
  137.5424   50.9704   30.5957 N   0  0  0  0  0  0  0  0  0  0  0  0
  130.7530   52.6456   32.4027 N   0  0  0  0  0  0  0  0  0  0  0  0
  135.4897   53.1134   32.8611 C   0  0  0  0  0  0  0  0  0  0  0  0
  1  5  1  0
  1 10  1  0
  2  3  1  0
  2 12  1  0
  3  4  1  0
  4 11  1  0
  5  9  1  0
  6  8  2  0
  7  8  1  0
  8 11  1  0
  9 12  1  0
M  END
$$$$
