
     RDKit          3D

 12 11  0  0  0  0  0  0  0  0999 V2000
  131.9901   53.2484   32.3840 C   0  0  0  0  0  0  0  0  0  0  0  0
  134.4830   53.3168   32.6751 C   0  0  0  0  0  0  0  0  0  0  0  0
  137.3979   51.4441   30.8300 N   0  0  0  0  0  0  0  0  0  0  0  0
  136.3323   51.3106   32.9232 N   0  0  0  0  0  0  0  0  0  0  0  0
  129.6450   53.5845   31.1106 C   0  0  0  0  0  0  0  0  0  0  0  0
  128.6193   52.1573   32.2917 N   0  0  0  0  0  0  0  0  0  0  0  0
  136.8956   51.3615   31.8429 C   0  0  0  0  0  0  0  0  0  0  0  0
  131.0993   52.2270   32.4134 C   0  0  0  0  0  0  0  0  0  0  0  0
  135.6656   51.8650   33.6947 N   0  0  0  0  0  0  0  0  0  0  0  0
  133.1326   53.1365   33.3689 C   0  0  0  0  0  0  0  0  0  0  0  0
  135.3873   53.1999   33.9167 C   0  0  0  0  0  0  0  0  0  0  0  0
  129.8682   52.3592   31.5889 C   0  0  0  0  0  0  0  0  0  0  0  0
  1  8  2  3
  1 10  1  0
  2 10  1  0
  2 11  1  0
  3  7  3  0
  4  7  1  0
  4  9  1  0
  5 12  1  0
  6 12  1  0
  8 12  1  0
  9 11  1  0
M  END
$$$$
