
     RDKit          3D

 12 11  0  0  0  0  0  0  0  0999 V2000
  136.2980   52.2221   33.3485 C   0  0  0  0  0  0  0  0  0  0  0  0
  131.8163   52.7114   33.3256 N   0  0  0  0  0  0  0  0  0  0  0  0
  130.9424   51.9967   32.4458 C   0  0  0  0  0  0  0  0  0  0  0  0
  137.1178   51.2258   32.5683 C   0  0  0  0  0  0  0  0  0  0  0  0
  128.6047   51.9650   31.6391 C   0  0  0  0  0  0  0  0  0  0  0  0
  137.7120   51.7782   31.3538 C   0  0  0  0  0  0  0  0  0  0  0  0
  129.6841   52.6454   31.9951 C   0  0  0  0  0  0  0  0  0  0  0  0
  130.0197   53.2698   30.8121 O   0  0  0  0  0  0  0  0  0  0  0  0
  134.2424   53.3578   33.4613 C   0  0  0  0  0  0  0  0  0  0  0  0
  132.9542   53.4723   32.6516 C   0  0  0  0  0  0  0  0  0  0  0  0
  134.9046   52.1364   33.0904 O   0  0  0  0  0  0  0  0  0  0  0  0
  138.1885   50.6809   30.6357 N   0  0  0  0  0  0  0  0  0  0  0  0
  1  4  1  0
  1 11  1  0
  2  3  1  0
  2 10  1  0
  3  7  1  0
  4  6  1  0
  5  7  1  0
  6 12  1  0
  7  8  1  0
  9 10  1  0
  9 11  1  0
M  END
$$$$
