
     RDKit          3D

 11 10  0  0  0  0  0  0  0  0999 V2000
  130.9051   52.8496   32.4628 N   0  0  0  0  0  0  0  0  0  0  0  0
  128.6876   51.5360   32.6689 O   0  0  0  0  0  0  0  0  0  0  0  0
  135.6711   52.4684   33.4412 C   0  0  0  0  0  0  0  0  0  0  0  0
  136.8833   52.1876   32.5614 C   0  0  0  0  0  0  0  0  0  0  0  0
  137.9527   50.6688   30.9761 N   0  0  0  0  0  0  0  0  0  0  0  0
  136.9560   50.7922   32.0480 C   0  0  0  0  0  0  0  0  0  0  0  0
  133.2537   52.9184   33.0594 C   0  0  0  0  0  0  0  0  0  0  0  0
  134.6646   53.3687   32.7543 C   0  0  0  0  0  0  0  0  0  0  0  0
  129.8908   53.2368   31.5085 C   0  0  0  0  0  0  0  0  0  0  0  0
  128.9398   52.0754   31.4181 C   0  0  0  0  0  0  0  0  0  0  0  0
  132.1390   53.5946   32.3586 C   0  0  0  0  0  0  0  0  0  0  0  0
  1  9  1  0
  1 11  1  0
  2 10  1  0
  3  4  1  0
  3  8  1  0
  4  6  1  0
  5  6  1  0
  7  8  1  0
  7 11  1  0
  9 10  1  0
M  END
$$$$
