
     RDKit          3D

 17 19  0  0  0  0  0  0  0  0999 V2000
  136.1643   53.0627   32.1826 C   0  0  0  0  0  0  0  0  0  0  0  0
  134.1806   53.5399   33.3193 N   0  0  0  0  0  0  0  0  0  0  0  0
  132.1497   52.3026   33.1950 N   0  0  0  0  0  0  0  0  0  0  0  0
  128.8708   51.7734   31.7256 C   0  0  0  0  0  0  0  0  0  0  0  0
  129.9247   51.4728   32.5417 C   0  0  0  0  0  0  0  0  0  0  0  0
  128.9381   52.9265   30.8999 C   0  0  0  0  0  0  0  0  0  0  0  0
  132.2588   54.0649   31.9031 C   0  0  0  0  0  0  0  0  0  0  0  0
  132.9540   53.3229   32.8424 C   0  0  0  0  0  0  0  0  0  0  0  0
  137.8739   51.0275   31.4921 C   0  0  0  0  0  0  0  0  0  0  0  0
  131.1320   53.4538   31.7246 C   0  0  0  0  0  0  0  0  0  0  0  0
  136.4700   52.1278   33.1201 C   0  0  0  0  0  0  0  0  0  0  0  0
  131.0406   52.3263   32.5291 C   0  0  0  0  0  0  0  0  0  0  0  0
  135.2124   54.1247   32.5075 C   0  0  0  0  0  0  0  0  0  0  0  0
  137.5018   52.0408   30.5946 C   0  0  0  0  0  0  0  0  0  0  0  0
  137.3689   51.0635   32.7520 C   0  0  0  0  0  0  0  0  0  0  0  0
  130.0543   53.7348   30.9165 C   0  0  0  0  0  0  0  0  0  0  0  0
  136.6595   53.0404   30.9409 N   0  0  0  0  0  0  0  0  0  0  0  0
  1 11  2  0
  1 13  1  0
  1 17  1  0
  2  8  1  0
  2 13  1  0
  3  8  2  0
  3 12  1  0
  4  5  1  0
  4  6  2  0
  5 12  2  0
  6 16  1  0
  7  8  1  0
  7 10  1  0
  9 14  1  0
  9 15  2  0
 10 12  1  0
 10 16  2  0
 11 15  1  0
 14 17  2  0
M  END
$$$$
