
     RDKit          3D

 25 27  0  0  0  0  0  0  0  0999 V2000
   25.4819   20.2574   19.5417 C   0  0  0  0  0  0  0  0  0  0  0  0
   23.2720   21.0598   18.7647 C   0  0  0  0  0  0  0  0  0  0  0  0
   20.7349   24.1457   20.6329 C   0  0  0  0  0  0  0  0  0  0  0  0
   22.7350   20.8151   20.2327 C   0  0  2  0  0  0  0  0  0  0  0  0
   22.3250   19.2958   20.3123 C   0  0  0  0  0  0  0  0  0  0  0  0
   23.5122   21.2531   22.5921 C   0  0  0  0  0  0  0  0  0  0  0  0
   25.0726   20.3773   17.0817 C   0  0  0  0  0  0  0  0  0  0  0  0
   18.5731   25.9782   20.7130 C   0  0  0  0  0  0  0  0  0  0  0  0
   18.3417   24.6152   20.5329 C   0  0  0  0  0  0  0  0  0  0  0  0
   24.6681   20.5473   18.5139 C   0  0  0  0  0  0  0  0  0  0  0  0
   25.0769   20.4311   20.9746 C   0  0  0  0  0  0  0  0  0  0  0  0
   22.7490   27.0213   20.4309 O   0  0  0  0  0  0  0  0  0  0  0  0
   19.4046   23.6960   20.4882 C   0  0  0  0  0  0  0  0  0  0  0  0
   22.8847   25.5710   22.1711 O   0  0  0  0  0  0  0  0  0  0  0  0
   20.1963   21.4016   20.2202 C   0  0  0  0  0  0  0  0  0  0  0  0
   21.5307   21.7997   20.3544 C   0  0  0  0  0  0  0  0  0  0  0  0
   19.1539   22.3324   20.2873 C   0  0  0  0  0  0  0  0  0  0  0  0
   22.2835   26.1074   21.0868 C   0  0  0  0  0  0  0  0  0  0  0  0
   21.7636   18.7777   21.6317 C   0  0  0  0  0  0  0  0  0  0  0  0
   19.8737   26.4398   20.8699 C   0  0  0  0  0  0  0  0  0  0  0  0
   24.2459   20.5496   16.1860 O   0  0  0  0  0  0  0  0  0  0  0  0
   23.8365   21.1882   21.1697 N   0  0  0  0  0  0  0  0  0  0  0  0
   20.9418   25.5331   20.8487 C   0  0  0  0  0  0  0  0  0  0  0  0
   26.4903   19.9834   16.7534 C   0  0  0  0  0  0  0  0  0  0  0  0
   21.7716   23.1825   20.5361 C   0  0  0  0  0  0  0  0  0  0  0  0
  1 10  2  0
  1 11  1  0
  2  4  1  0
  2 10  1  0
  3 13  1  0
  3 23  2  0
  3 25  1  0
  4  5  1  6
  4 16  1  0
  4 22  1  0
  5 19  1  0
  6 22  1  0
  7 10  1  0
  7 21  2  0
  7 24  1  0
  8  9  1  0
  8 20  2  0
  9 13  2  0
 11 22  1  0
 12 18  2  0
 13 17  1  0
 14 18  1  0
 15 16  1  0
 15 17  2  0
 16 25  2  0
 18 23  1  0
 20 23  1  0
M  END
$$$$
