
     RDKit          3D

 31 31  0  0  0  0  0  0  0  0999 V2000
   -1.9413   18.4718  -22.0638 C   0  0  0  0  0  0  0  0  0  0  0  0
   -1.8650   19.0792  -23.4952 C   0  0  0  0  0  0  0  0  0  0  0  0
   -0.5893   18.4870  -25.6050 C   0  0  0  0  0  0  0  0  0  0  0  0
   -0.5883   19.4924  -26.4892 C   0  0  0  0  0  0  0  0  0  0  0  0
   -2.9884    9.5846  -30.4869 O   0  0  0  0  0  0  0  0  0  0  0  0
   -1.5839   18.0225  -24.5893 C   0  0  0  0  0  0  0  0  0  0  0  0
    2.1424   17.7420  -29.9972 C   0  0  0  0  0  0  0  0  0  0  0  0
   -2.6295   15.1660  -27.8121 C   0  0  0  0  0  0  0  0  0  0  0  0
    0.4266   19.5763  -27.6288 C   0  0  0  0  0  0  0  0  0  0  0  0
   -2.8121    9.0633  -26.9121 C   0  0  0  0  0  0  0  0  0  0  0  0
   -1.7965   12.2019  -29.6381 N   0  0  0  0  0  0  0  0  0  0  0  0
    2.6418   17.0420  -28.7375 C   0  0  0  0  0  0  0  0  0  0  0  0
    0.4084   18.2988  -28.4297 C   0  0  0  0  0  0  0  0  0  0  0  0
   -2.3549   10.3242  -26.4300 C   0  0  0  0  0  0  0  0  0  0  0  0
   -0.9885   11.8327  -30.8429 C   0  0  0  0  0  0  0  0  0  0  0  0
   -4.8342   17.6592  -23.7890 C   0  0  0  0  0  0  0  0  0  0  0  0
    1.8933   16.6400  -30.8293 O   0  0  0  0  0  0  0  0  0  0  0  0
   -2.9303   14.0244  -30.2599 O   0  0  0  0  0  0  0  0  0  0  0  0
   -2.1975   11.1631  -28.6801 C   0  0  0  0  0  0  0  0  0  0  0  0
   -1.5331   14.3989  -28.4144 C   0  0  0  0  0  0  0  0  0  0  0  0
   -2.0352   11.3605  -27.3128 C   0  0  0  0  0  0  0  0  0  0  0  0
   -2.1225   13.5326  -29.4988 C   0  0  0  0  0  0  0  0  0  0  0  0
    0.8415   18.5445  -29.8722 C   0  0  0  0  0  0  0  0  0  0  0  0
    3.3623   18.4144  -30.6569 C   0  0  0  0  0  0  0  0  0  0  0  0
   -3.0029    8.8823  -28.2941 C   0  0  0  0  0  0  0  0  0  0  0  0
   -2.6991    9.9138  -29.1713 C   0  0  0  0  0  0  0  0  0  0  0  0
   -2.9107   17.4028  -26.5983 O   0  0  0  0  0  0  0  0  0  0  0  0
   -3.7529   16.8686  -24.4073 C   0  0  0  0  0  0  0  0  0  0  0  0
   -2.9610   17.8315  -25.2410 C   0  0  0  0  0  0  0  0  0  0  0  0
   -3.1122    7.9049  -26.2109 F   0  0  0  0  0  0  0  0  0  0  0  0
   -2.1259   16.1615  -26.7652 C   0  0  0  0  0  0  0  0  0  0  0  0
  1  2  1  0
  2  6  1  0
  3  4  2  3
  3  6  1  0
  4  9  1  0
  5 26  1  0
  6 29  1  0
  7 12  1  0
  7 17  1  0
  7 23  1  0
  7 24  1  0
  8 20  1  0
  8 31  1  0
  9 13  1  0
 10 14  1  0
 10 25  2  0
 10 30  1  0
 11 15  1  0
 11 19  1  0
 11 22  1  0
 13 23  1  0
 14 21  2  0
 16 28  1  0
 18 22  2  0
 19 21  1  0
 19 26  2  0
 20 22  1  0
 25 26  1  0
 27 29  1  0
 27 31  1  0
 28 29  1  0
M  END
$$$$
