
     RDKit          3D

 37 39  0  0  0  0  0  0  0  0999 V2000
    2.1694   15.7370  -28.9904 O   0  0  0  0  0  0  0  0  0  0  0  0
   -0.6656   19.6174  -25.2837 C   0  0  0  0  0  0  0  0  0  0  0  0
   -2.6556    8.3494  -26.9241 C   0  0  0  0  0  0  0  0  0  0  0  0
    2.3816   16.4437  -31.7206 C   0  0  0  0  0  0  0  0  0  0  0  0
    0.5712   17.3185  -28.7919 N   0  0  0  0  0  0  0  0  0  0  0  0
   -2.4164   13.8818  -27.3709 C   0  0  0  0  0  0  0  0  0  0  0  0
   -4.6693   17.9356  -24.2303 C   0  0  0  0  0  0  0  0  0  0  0  0
   -0.9585   19.4081  -26.5600 N   0  0  0  0  0  0  0  0  0  0  0  0
   -2.8278    7.0587  -26.3928 F   0  0  0  0  0  0  0  0  0  0  0  0
   -0.9945   15.4536  -28.4234 C   0  0  0  0  0  0  0  0  0  0  0  0
   -1.6212   19.7626  -24.3240 C   0  0  0  0  0  0  0  0  0  0  0  0
    0.4734   19.7902  -24.9250 O   0  0  0  0  0  0  0  0  0  0  0  0
   -1.8785   17.8168  -22.0419 C   0  0  0  0  0  0  0  0  0  0  0  0
   -1.0225   11.6259  -31.3321 N   0  0  0  0  0  0  0  0  0  0  0  0
    2.4673   17.3828  -30.5183 C   0  0  0  0  0  0  0  0  0  0  0  0
   -1.1594   12.4080  -30.4953 C   0  0  0  0  0  0  0  0  0  0  0  0
   -1.9614   15.1362  -27.4585 C   0  0  0  0  0  0  0  0  0  0  0  0
   -2.3129   10.6218  -26.3518 C   0  0  0  0  0  0  0  0  0  0  0  0
   -2.8501    8.6097  -28.2704 C   0  0  0  0  0  0  0  0  0  0  0  0
   -2.6721   18.9342  -24.1120 C   0  0  0  0  0  0  0  0  0  0  0  0
    3.9223   17.5430  -30.1060 C   0  0  0  0  0  0  0  0  0  0  0  0
   -1.3454   13.3416  -29.4445 C   0  0  0  0  0  0  0  0  0  0  0  0
   -2.7994    9.9258  -28.6740 C   0  0  0  0  0  0  0  0  0  0  0  0
   -2.3383    9.3034  -25.9973 C   0  0  0  0  0  0  0  0  0  0  0  0
   -3.8757   18.8555  -24.7944 C   0  0  0  0  0  0  0  0  0  0  0  0
    0.1556   18.7293  -28.7668 C   0  0  0  0  0  0  0  0  0  0  0  0
   -2.8285   18.0170  -23.0714 N   0  0  0  0  0  0  0  0  0  0  0  0
   -2.0295   13.0472  -28.2657 C   0  0  0  0  0  0  0  0  0  0  0  0
    0.0209   19.5043  -27.4571 C   0  0  0  0  0  0  0  0  0  0  0  0
   -0.1472   16.4683  -28.0506 C   0  0  0  0  0  0  0  0  0  0  0  0
   -4.0498   17.3937  -23.1383 N   0  0  0  0  0  0  0  0  0  0  0  0
   -2.5437   10.9154  -27.7037 C   0  0  0  0  0  0  0  0  0  0  0  0
    1.9774   18.7369  -30.8329 C   0  0  0  0  0  0  0  0  0  0  0  0
   -2.4376   11.8181  -27.9243 C   0  0  0  0  0  0  0  0  0  0  0  0
   -2.5301   16.1994  -26.5017 C   0  0  0  0  0  0  0  0  0  0  0  0
   -0.8633   14.6652  -29.5424 C   0  0  0  0  0  0  0  0  0  0  0  0
    1.6718   16.7954  -29.3748 C   0  0  0  0  0  0  0  0  0  0  0  0
  1 37  2  0
  2  8  1  0
  2 11  1  0
  2 12  2  0
  3  9  1  0
  3 19  1  0
  3 24  2  0
  4 15  1  0
  5 26  1  0
  5 30  1  0
  5 37  1  0
  6 17  1  0
  6 28  1  0
  7 25  2  0
  7 31  1  0
  8 29  1  0
 10 17  2  0
 10 30  1  0
 10 36  1  0
 11 20  2  3
 13 27  1  0
 14 16  3  0
 15 21  1  0
 15 33  1  0
 15 37  1  0
 16 22  1  0
 17 35  1  0
 18 24  1  0
 18 32  2  0
 19 23  2  0
 20 25  1  0
 20 27  1  0
 22 28  1  0
 22 36  2  0
 23 32  1  0
 26 29  1  0
 27 31  1  0
 28 34  2  3
 32 34  1  0
M  END
$$$$
