
     RDKit          3D

 32 32  0  0  0  0  0  0  0  0999 V2000
    1.6354   17.5393  -29.0555 C   0  0  0  0  0  0  0  0  0  0  0  0
   -2.6123   16.8475  -26.0053 C   0  0  0  0  0  0  0  0  0  0  0  0
    2.2277   17.0932  -28.1856 O   0  0  0  0  0  0  0  0  0  0  0  0
   -1.3598   15.8806  -27.9564 C   0  0  0  0  0  0  0  0  0  0  0  0
   -2.6124    7.6659  -26.9489 C   0  0  0  0  0  0  0  0  0  0  0  0
    0.0817   20.0594  -27.1543 C   0  0  0  0  0  0  0  0  0  0  0  0
   -1.7527   11.8916  -28.9971 C   0  0  0  0  0  0  0  0  0  0  0  0
   -1.3314   12.0790  -31.3347 O   0  0  0  0  0  0  0  0  0  0  0  0
   -2.7939    9.8081  -27.9924 C   0  0  0  0  0  0  0  0  0  0  0  0
   -2.3865   10.1309  -30.4043 C   0  0  0  0  0  0  0  0  0  0  0  0
   -3.0937    9.0674  -26.9249 N   0  0  0  0  0  0  0  0  0  0  0  0
   -3.0298   16.0966  -27.1278 N   0  0  0  0  0  0  0  0  0  0  0  0
   -1.4556   16.7675  -25.6228 O   0  0  0  0  0  0  0  0  0  0  0  0
   -3.6290   17.7109  -25.1758 C   0  0  0  0  0  0  0  0  0  0  0  0
    2.3311   17.7668  -30.2085 N   0  0  0  0  0  0  0  0  0  0  0  0
   -3.8181   19.0729  -25.7152 C   0  0  0  0  0  0  0  0  0  0  0  0
   -1.3455   19.3661  -23.7964 C   0  0  0  0  0  0  0  0  0  0  0  0
   -2.2721   11.1263  -27.9480 C   0  0  0  0  0  0  0  0  0  0  0  0
   -2.2099   14.3142  -28.6649 C   0  0  0  0  0  0  0  0  0  0  0  0
   -1.8163   11.3733  -30.2494 C   0  0  0  0  0  0  0  0  0  0  0  0
    0.2744   17.9795  -28.7498 C   0  0  0  0  0  0  0  0  0  0  0  0
    0.1914   19.1932  -27.8850 C   0  0  0  0  0  0  0  0  0  0  0  0
   -2.4838   14.8958  -27.2452 C   0  0  0  0  0  0  0  0  0  0  0  0
    1.8793   18.8109  -31.1158 C   0  0  0  0  0  0  0  0  0  0  0  0
   -3.3204   17.7335  -23.7711 N   0  0  0  0  0  0  0  0  0  0  0  0
   -1.1403   13.1772  -28.6900 C   0  0  0  0  0  0  0  0  0  0  0  0
   -2.7917    9.7351  -25.7649 C   0  0  0  0  0  0  0  0  0  0  0  0
   -2.1368   18.1978  -21.9863 O   0  0  0  0  0  0  0  0  0  0  0  0
    3.4229   16.8978  -30.5922 C   0  0  0  0  0  0  0  0  0  0  0  0
   -0.6644   16.8781  -28.3600 C   0  0  0  0  0  0  0  0  0  0  0  0
   -2.3392   18.4067  -23.1737 C   0  0  0  0  0  0  0  0  0  0  0  0
   -2.8681    9.3846  -29.3335 C   0  0  0  0  0  0  0  0  0  0  0  0
  1  3  2  0
  1 15  1  0
  1 21  1  0
  2 12  1  0
  2 13  2  0
  2 14  1  0
  4 23  1  0
  4 30  3  0
  5 11  1  0
  6 22  3  0
  7 18  1  0
  7 20  2  0
  7 26  1  0
  8 20  1  0
  9 11  1  0
  9 18  2  0
  9 32  1  0
 10 20  1  0
 10 32  2  0
 11 27  1  0
 12 23  1  0
 14 16  1  0
 14 25  1  0
 15 24  1  0
 15 29  1  0
 17 31  1  0
 19 23  1  0
 19 26  1  0
 21 22  1  0
 21 30  1  0
 25 31  1  0
 28 31  2  0
M  END
$$$$
