
     RDKit          3D

 20 21  0  0  0  0  0  0  0  0999 V2000
   33.9981   24.6721    8.6987 O   0  0  0  0  0  0  0  0  0  0  0  0
   28.3811   23.2226    2.2347 O   0  0  0  0  0  0  0  0  0  0  0  0
   31.0136   27.8964   -0.7642 Cl  0  0  0  0  0  0  0  0  0  0  0  0
   34.5439   25.0161    7.4500 C   0  0  0  0  0  0  0  0  0  0  0  0
   29.5357   26.8599    1.0286 C   0  0  0  0  0  0  0  0  0  0  0  0
   29.5077   23.5927    2.7391 C   0  0  0  0  0  0  0  0  0  0  0  0
   30.7232   26.7541    0.4907 C   0  0  0  0  0  0  0  0  0  0  0  0
   31.6438   25.7251    0.5667 C   0  0  0  0  0  0  0  0  0  0  0  0
   33.3752   24.2692    5.2861 C   0  0  0  0  0  0  0  0  0  0  0  0
   34.3795   24.7013    4.2427 C   0  0  0  0  0  0  0  0  0  0  0  0
   29.2727   25.8176    1.7649 C   0  0  0  0  0  0  0  0  0  0  0  0
   32.9418   22.0566    4.2530 O   0  0  0  0  0  0  0  0  0  0  0  0
   31.0511   24.9565    5.0964 C   0  0  0  0  0  0  0  0  0  0  0  0
   34.1341   23.9059    6.5637 C   0  0  0  0  0  0  0  0  0  0  0  0
   31.2324   23.6665    4.5002 N   0  0  0  0  0  0  0  0  0  0  0  0
   30.1805   22.9249    3.8642 C   0  0  0  0  0  0  0  0  0  0  0  0
   31.2974   24.6753    1.3778 C   0  0  0  0  0  0  0  0  0  0  0  0
   32.5336   23.1682    4.6650 C   0  0  0  0  0  0  0  0  0  0  0  0
   30.0820   24.7791    1.9623 C   0  0  0  0  0  0  0  0  0  0  0  0
   32.3731   25.3518    5.5711 C   0  0  0  0  0  0  0  0  0  0  0  0
  1  4  1  0
  2  6  2  0
  3  7  1  0
  4 14  1  0
  5  7  1  0
  5 11  2  0
  6 16  1  0
  6 19  1  0
  7  8  2  0
  8 17  1  0
  9 10  1  0
  9 14  1  0
  9 18  1  0
  9 20  1  0
 11 19  1  0
 12 18  2  0
 13 15  1  0
 13 20  2  0
 15 16  1  0
 15 18  1  0
 17 19  2  0
M  END
$$$$
