
     RDKit          3D

 13 12  0  0  0  0  0  0  0  0999 V2000
   -1.8882   -0.1542    0.9921 C   0  0  0  0  0  0  0  0  0  0  0  0
    1.0552   -0.1043   -0.4225 C   0  0  0  0  0  0  0  0  0  0  0  0
    0.4097   -2.3501   -1.0556 O   0  0  0  0  0  0  0  0  0  0  0  0
    3.4748    0.6990   -0.4922 C   0  0  2  0  0  0  0  0  0  0  0  0
   -2.1711   -2.0605   -0.4865 O   0  0  0  0  0  0  0  0  0  0  0  0
   -3.1834    1.7311   -0.1696 C   0  0  0  0  0  0  0  0  0  0  0  0
   -3.2469    0.5746    0.8383 C   0  0  0  0  0  0  0  0  0  0  0  0
    3.2368    1.7640    0.4861 N   0  0  0  0  0  0  0  0  0  0  0  0
   -1.3887   -0.9113   -0.2696 C   0  0  2  0  0  0  0  0  0  0  0  0
    2.5313   -0.4905   -0.2309 C   0  0  0  0  0  0  0  0  0  0  0  0
   -4.4065   -0.3746    0.5111 C   0  0  0  0  0  0  0  0  0  0  0  0
    4.9409    0.2447   -0.4519 C   0  0  0  0  0  0  0  0  0  0  0  0
    0.1135   -1.3039   -0.1617 C   0  0  2  0  0  0  0  0  0  0  0  0
  1  7  1  0
  1  9  1  0
  2 10  1  0
  2 13  1  0
 13  3  1  6
  4  8  1  0
  4 10  1  0
  4 12  1  1
  9  5  1  1
  6  7  1  0
  7 11  1  0
  9 13  1  0
M  END
