
     RDKit          3D

 24 25  0  0  0  0  0  0  0  0999 V2000
   -1.4144   -2.9963   -1.7794 O   0  0  0  0  0  0  0  0  0  0  0  0
    4.6383   -0.8263   -2.4616 C   0  0  0  0  0  0  0  0  0  0  0  0
   -2.4956    2.0971    3.0969 C   0  0  0  0  0  0  0  0  0  0  0  0
   -1.3719    0.3864    1.7822 C   0  0  0  0  0  0  0  0  0  0  0  0
   -2.7419   -1.8283   -0.2170 C   0  0  0  0  0  0  0  0  0  0  0  0
    5.3631    0.0380   -0.3200 C   0  0  0  0  0  0  0  0  0  0  0  0
    1.0479    0.2679    0.9595 C   0  0  1  0  0  0  0  0  0  0  0  0
   -2.4266   -0.4328   -0.3068 N   0  0  0  0  0  0  0  0  0  0  0  0
    5.5900   -0.7660   -1.4402 C   0  0  0  0  0  0  0  0  0  0  0  0
   -1.4248    1.2248    2.9085 C   0  0  0  0  0  0  0  0  0  0  0  0
    0.4291   -0.3743   -1.3237 O   0  0  0  0  0  0  0  0  0  0  0  0
   -2.4356    0.4210    0.8458 C   0  0  0  0  0  0  0  0  0  0  0  0
    1.9383    1.5158   -1.1262 C   0  0  0  0  0  0  0  0  0  0  0  0
    0.7730    0.7149   -0.5015 C   0  0  2  0  0  0  0  0  0  0  0  0
   -2.9886   -2.3550    0.9021 O   0  0  0  0  0  0  0  0  0  0  0  0
    1.3755    1.3880    1.7426 O   0  0  0  0  0  0  0  0  0  0  0  0
    4.1840    0.7826   -0.2188 C   0  0  0  0  0  0  0  0  0  0  0  0
   -4.6378    1.3830    0.0411 C   0  0  0  0  0  0  0  0  0  0  0  0
   -3.5297    2.1496    2.1645 C   0  0  0  0  0  0  0  0  0  0  0  0
    3.4576   -0.0835   -2.3643 C   0  0  0  0  0  0  0  0  0  0  0  0
    3.2201    0.7260   -1.2402 C   0  0  0  0  0  0  0  0  0  0  0  0
   -0.1481   -0.4881    1.5838 C   0  0  0  0  0  0  0  0  0  0  0  0
   -3.5119    1.3154    1.0368 C   0  0  0  0  0  0  0  0  0  0  0  0
   -2.7355   -2.6766   -1.4470 C   0  0  0  0  0  0  0  0  0  0  0  0
  1 24  1  0
  2  9  2  0
  2 20  1  0
  3 10  1  0
  3 19  2  0
  4 10  2  0
  4 12  1  0
  4 22  1  0
  5  8  1  0
  5 15  2  0
  5 24  1  0
  6  9  1  0
  6 17  2  0
  7 14  1  0
  7 16  1  1
  7 22  1  0
  8 12  1  0
 14 11  1  6
 12 23  2  0
 13 14  1  0
 13 21  1  0
 17 21  1  0
 18 23  1  0
 19 23  1  0
 20 21  2  0
M  END
