
     RDKit          3D

 29 32  0  0  0  0  0  0  0  0999 V2000
   27.6680   51.1741   20.0598 C   0  0  0  0  0  0  0  0  0  0  0  0
   25.6252   48.6004   24.1389 C   0  0  1  0  0  0  0  0  0  0  0  0
   25.4173   53.7072   21.8105 C   0  0  0  0  0  0  0  0  0  0  0  0
   30.8344   44.3072   25.9283 C   0  0  0  0  0  0  0  0  0  0  0  0
   29.4431   45.7828   24.5741 C   0  0  0  0  0  0  0  0  0  0  0  0
   26.8446   46.8721   22.6988 C   0  0  2  0  0  0  0  0  0  0  0  0
   30.7071   45.4927   25.1200 C   0  0  0  0  0  0  0  0  0  0  0  0
   27.1210   53.9205   20.0106 C   0  0  0  0  0  0  0  0  0  0  0  0
   28.4883   43.7597   25.6144 C   0  0  0  0  0  0  0  0  0  0  0  0
   25.8739   48.0999   22.6593 C   0  0  2  0  0  0  0  0  0  0  0  0
   24.6869   47.6249   24.2030 O   0  0  0  0  0  0  0  0  0  0  0  0
   28.0830   53.3380   19.1428 C   0  0  0  0  0  0  0  0  0  0  0  0
   27.2465   49.1002   21.0388 N   0  0  0  0  0  0  0  0  0  0  0  0
   26.5500   51.6478   20.8795 C   0  0  0  0  0  0  0  0  0  0  0  0
   26.0732   47.8546   26.9323 O   0  0  0  0  0  0  0  0  0  0  0  0
   27.7413   47.4346   23.7402 N   0  0  0  0  0  0  0  0  0  0  0  0
   28.3873   51.9664   19.1986 N   0  0  0  0  0  0  0  0  0  0  0  0
   32.0665   43.9351   26.4024 O   0  0  0  0  0  0  0  0  0  0  0  0
   27.0267   48.1711   24.6702 C   0  0  2  0  0  0  0  0  0  0  0  0
   26.4017   53.1280   20.9387 C   0  0  0  0  0  0  0  0  0  0  0  0
   25.9440   50.8078   21.8267 C   0  0  0  0  0  0  0  0  0  0  0  0
   27.2662   46.6460   21.3307 O   0  0  0  0  0  0  0  0  0  0  0  0
   27.0481   47.2981   25.9344 C   0  0  0  0  0  0  0  0  0  0  0  0
   26.8956   55.2018   19.8181 F   0  0  0  0  0  0  0  0  0  0  0  0
   26.3568   49.4757   21.8381 C   0  0  0  0  0  0  0  0  0  0  0  0
   28.3703   44.8777   24.7432 C   0  0  0  0  0  0  0  0  0  0  0  0
   29.1504   47.0339   23.7774 C   0  0  0  0  0  0  0  0  0  0  0  0
   29.7685   43.4279   26.1278 C   0  0  0  0  0  0  0  0  0  0  0  0
   27.8978   49.8332   20.1813 C   0  0  0  0  0  0  0  0  0  0  0  0
  1 14  1  0
  1 17  1  0
  1 29  2  0
  2 10  1  0
  2 11  1  1
  2 19  1  0
  3 20  1  0
  4  7  2  0
  4 18  1  0
  4 28  1  0
  5  7  1  0
  5 26  2  0
  5 27  1  0
  6 10  1  0
  6 16  1  0
  6 22  1  6
  8 12  1  0
  8 20  2  0
  8 24  1  0
  9 26  1  0
  9 28  2  0
 10 25  1  6
 12 17  2  0
 13 25  2  0
 13 29  1  0
 14 20  1  0
 14 21  2  0
 15 23  1  0
 16 19  1  0
 16 27  1  0
 19 23  1  1
 21 25  1  0
M  END
