
     RDKit          3D

 19 20  0  0  0  0  0  0  0  0999 V2000
  -35.5891   34.1236  -21.6566 C   0  0  0  0  0  0  0  0  0  0  0  0
  -36.8189   25.2162  -19.2304 C   0  0  0  0  0  0  0  0  0  0  0  0
  -37.7052   27.4202  -19.0715 N   0  0  0  0  0  0  0  0  0  0  0  0
  -36.3988   35.1961  -21.2947 C   0  0  0  0  0  0  0  0  0  0  0  0
  -36.0357   33.2853  -20.5834 O   0  0  0  0  0  0  0  0  0  0  0  0
  -34.3353   32.3863  -18.6527 O   0  0  0  0  0  0  0  0  0  0  0  0
  -35.6104   31.9189  -20.6129 C   0  0  0  0  0  0  0  0  0  0  0  0
  -36.4861   29.6740  -20.9232 O   0  0  0  0  0  0  0  0  0  0  0  0
  -36.3544   29.4240  -19.5331 C   0  0  0  0  0  0  0  0  0  0  0  0
  -35.5833   25.7289  -19.5664 C   0  0  0  0  0  0  0  0  0  0  0  0
  -37.1469   36.0266  -20.9044 C   0  0  0  0  0  0  0  0  0  0  0  0
  -35.1193   30.0788  -18.9765 C   0  0  0  0  0  0  0  0  0  0  0  0
  -35.3051   31.5451  -19.1937 C   0  0  0  0  0  0  0  0  0  0  0  0
  -34.8556   29.8300  -17.5831 O   0  0  0  0  0  0  0  0  0  0  0  0
  -36.4927   27.9633  -19.4036 C   0  0  0  0  0  0  0  0  0  0  0  0
  -37.8731   26.0615  -18.9710 C   0  0  0  0  0  0  0  0  0  0  0  0
  -35.4176   27.1126  -19.6604 C   0  0  0  0  0  0  0  0  0  0  0  0
  -38.0837   36.9971  -20.3966 C   0  0  0  0  0  0  0  0  0  0  0  0
  -36.7096   31.0611  -21.1471 C   0  0  0  0  0  0  0  0  0  0  0  0
  1  4  1  0
  1  5  1  0
  2 10  2  0
  2 16  1  0
  3 15  1  0
  3 16  2  0
  4 11  3  0
  5  7  1  0
  6 13  1  0
  7 13  1  0
  7 19  1  0
  8  9  1  0
  8 19  1  0
  9 12  1  0
  9 15  1  0
 10 17  1  0
 11 18  1  0
 12 13  1  0
 12 14  1  0
 15 17  2  0
M  END
$$$$
