
     RDKit          3D

 12 13  0  0  0  0  0  0  0  0999 V2000
    2.9826    0.0535   20.5295 C   0  0  0  0  0  0  0  0  0  0  0  0
    0.0294   -4.9214   15.8005 C   0  0  0  0  0  0  0  0  0  0  0  0
    2.9400   -1.8907   18.9613 C   0  0  0  0  0  0  0  0  0  0  0  0
    3.4274   -2.4438   20.0888 C   0  0  0  0  0  0  0  0  0  0  0  0
    3.1096   -2.5370   17.6543 C   0  0  0  0  0  0  0  0  0  0  0  0
    2.4205   -1.2941   20.1742 C   0  0  0  0  0  0  0  0  0  0  0  0
    2.3116   -3.5940   17.0705 C   0  0  0  0  0  0  0  0  0  0  0  0
    1.2742   -1.5534   20.8256 O   0  0  0  0  0  0  0  0  0  0  0  0
    1.7742   -3.1216   15.3234 O   0  0  0  0  0  0  0  0  0  0  0  0
    4.2278   -2.2981   17.0113 O   0  0  0  0  0  0  0  0  0  0  0  0
    1.2658   -5.0635   15.2145 C   0  0  0  0  0  0  0  0  0  0  0  0
    1.5298   -4.0419   15.8922 C   0  0  0  0  0  0  0  0  0  0  0  0
  1  6  1  0
  2 11  1  0
  2 12  1  0
  3  4  1  0
  3  5  1  0
  3  6  1  0
  4  6  1  0
  5  7  1  0
  5 10  1  0
  6  8  1  0
  7 12  1  0
  9 12  1  0
 11 12  1  0
M  END
$$$$
