
     RDKit          3D

 12 11  0  0  0  0  0  0  0  0999 V2000
   -3.0224   11.1794   15.8032 C   0  0  0  0  0  0  0  0  0  0  0  0
  -10.3889   13.1356   15.9385 C   0  0  0  0  0  0  0  0  0  0  0  0
   -1.4078    8.9891   16.2732 P   0  0  0  0  0  0  0  0  0  0  0  0
   -2.5956    9.7908   15.4925 O   0  0  0  0  0  0  0  0  0  0  0  0
  -11.3306   12.2511   15.3485 O   0  0  0  0  0  0  0  0  0  0  0  0
   -6.6305   12.5407   15.4464 C   0  0  0  0  0  0  0  0  0  0  0  0
   -9.1265   13.2057   15.0855 C   0  0  0  0  0  0  0  0  0  0  0  0
   -7.8623   13.2925   16.0152 C   0  0  0  0  0  0  0  0  0  0  0  0
   -5.3807   12.4185   16.3193 C   0  0  0  0  0  0  0  0  0  0  0  0
   -4.3654   11.7764   15.3023 C   0  0  0  0  0  0  0  0  0  0  0  0
    0.0028    9.4323   15.7043 O   0  0  0  0  0  0  0  0  0  0  0  0
   -1.4193    7.1816   17.0650 S   0  0  0  0  0  0  0  0  0  0  0  0
  1  4  1  0
  1 10  1  0
  2  5  1  0
  2  7  1  0
  3  4  1  0
  3 11  2  0
  3 12  1  0
  6  8  1  0
  6  9  1  0
  7  8  1  0
  9 10  1  0
M  END
$$$$
