
     RDKit          3D

 29 32  0  0  0  0  0  0  0  0999 V2000
   -5.1350   12.6540   19.9080 O   0  0  0  0  0  0  0  0  0  0  0  0
   -8.4228   12.5513   17.3170 C   0  0  0  0  0  0  0  0  0  0  0  0
   -5.5744   14.9120   20.5979 C   0  0  0  0  0  0  0  0  0  0  0  0
   -6.3659   12.8339   17.4230 C   0  0  0  0  0  0  0  0  0  0  0  0
  -10.6501   12.6951   17.8872 N   0  0  0  0  0  0  0  0  0  0  0  0
    0.9928    7.5728   17.4454 P   0  0  0  0  0  0  0  0  0  0  0  0
  -10.3401   13.4489   18.9699 C   0  0  0  0  0  0  0  0  0  0  0  0
   -5.7164   13.9121   19.4555 C   0  0  0  0  0  0  0  0  0  0  0  0
   -1.7315    9.4934   18.4632 O   0  0  0  0  0  0  0  0  0  0  0  0
   -9.0857   13.7590   19.2747 N   0  0  0  0  0  0  0  0  0  0  0  0
   -7.2780   12.3126   16.7325 N   0  0  0  0  0  0  0  0  0  0  0  0
    1.7538    7.3452   16.2139 O   0  0  0  0  0  0  0  0  0  0  0  0
   -0.6331    9.5887   17.0815 P   0  0  0  0  0  0  0  0  0  0  0  0
   -3.8245   15.3131   18.4220 O   0  0  0  0  0  0  0  0  0  0  0  0
   -9.7223   12.2156   17.0323 C   0  0  0  0  0  0  0  0  0  0  0  0
   -2.6346   11.6212   17.5691 O   0  0  0  0  0  0  0  0  0  0  0  0
    1.4614    8.5522   18.5198 O   0  0  0  0  0  0  0  0  0  0  0  0
    0.7007   10.1252   16.2467 O   0  0  0  0  0  0  0  0  0  0  0  0
   -8.0848   13.3807   18.5003 C   0  0  0  0  0  0  0  0  0  0  0  0
  -10.1741   11.4741   16.0033 N   0  0  0  0  0  0  0  0  0  0  0  0
   -1.7314    9.9862   15.9997 O   0  0  0  0  0  0  0  0  0  0  0  0
    1.3996    6.3896   18.2957 O   0  0  0  0  0  0  0  0  0  0  0  0
   -6.7796   13.5097   18.5227 N   0  0  0  0  0  0  0  0  0  0  0  0
   -2.6956   10.0810   17.2432 P   0  0  0  0  0  0  0  0  0  0  0  0
   -3.8171   12.9604   19.3525 C   0  0  0  0  0  0  0  0  0  0  0  0
   -4.0393    9.4329   17.0417 O   0  0  0  0  0  0  0  0  0  0  0  0
   -0.4824    7.9365   16.9701 O   0  0  0  0  0  0  0  0  0  0  0  0
   -4.5090   13.9983   18.4515 C   0  0  0  0  0  0  0  0  0  0  0  0
   -2.9809   11.7168   18.9302 C   0  0  0  0  0  0  0  0  0  0  0  0
  1  8  1  0
  1 25  1  0
  2 11  1  0
  2 15  2  0
  2 19  1  0
  3  8  1  0
  4 11  2  0
  4 23  1  0
  5  7  2  0
  5 15  1  0
  6 12  1  0
  6 17  2  0
  6 22  1  0
  6 27  1  0
  7 10  1  0
  8 23  1  0
  8 28  1  0
  9 13  1  0
  9 24  1  0
 10 19  2  0
 13 18  1  0
 13 21  1  0
 13 27  1  0
 14 28  1  0
 15 20  1  0
 16 24  1  0
 16 29  1  0
 19 23  1  0
 21 24  1  0
 24 26  2  0
 25 28  1  0
 25 29  1  0
M  END
$$$$
