
     RDKit          3D

 10  9  0  0  0  0  0  0  0  0999 V2000
   24.9110    3.2680   -6.2581 C   0  0  0  0  0  0  0  0  0  0  0  0
   25.6114    4.9535   -9.2462 N   0  0  0  0  0  0  0  0  0  0  0  0
   23.6491    5.7295   -5.5794 C   0  0  0  0  0  0  0  0  0  0  0  0
   22.5279    4.7188   -7.6645 C   0  0  0  0  0  0  0  0  0  0  0  0
   25.7968    2.4516   -6.1062 O   0  0  0  0  0  0  0  0  0  0  0  0
   24.9237    4.2554   -7.1615 N   0  0  0  0  0  0  0  0  0  0  0  0
   26.9922    3.6366   -8.0295 N   0  0  0  0  0  0  0  0  0  0  0  0
   23.7815    5.2303   -7.0735 C   0  0  0  0  0  0  0  0  0  0  0  0
   25.8210    4.2646   -8.1413 C   0  0  0  0  0  0  0  0  0  0  0  0
   23.7916    3.2464   -5.4612 O   0  0  0  0  0  0  0  0  0  0  0  0
  1  5  1  0
  1  6  1  0
  1 10  2  0
  2  9  1  0
  3  8  1  0
  4  8  1  0
  6  8  1  0
  6  9  2  3
  7  9  1  0
M  END
$$$$
