
     RDKit          3D

 21 23  0  0  0  0  0  0  0  0999 V2000
   23.0992    6.9576   -5.7130 C   0  0  0  0  0  0  0  0  0  0  0  0
   24.2140    7.1695   -6.3746 C   0  0  0  0  0  0  0  0  0  0  0  0
   26.3927    7.2705  -10.3518 N   0  0  0  0  0  0  0  0  0  0  0  0
   23.3748    5.6791   -8.0029 C   0  0  0  0  0  0  0  0  0  0  0  0
   26.4062    5.2049   -9.5778 N   0  0  0  0  0  0  0  0  0  0  0  0
   26.0724    6.4462   -9.4110 C   0  0  0  0  0  0  0  0  0  0  0  0
   27.2973    3.4901   -8.2906 N   0  0  0  0  0  0  0  0  0  0  0  0
   24.4222    6.5684   -7.5532 C   0  0  0  0  0  0  0  0  0  0  0  0
   25.2278    8.0604   -5.8048 C   0  0  0  0  0  0  0  0  0  0  0  0
   22.2307    5.3958   -7.2535 C   0  0  0  0  0  0  0  0  0  0  0  0
   25.1692    4.0042   -7.9418 C   0  0  0  0  0  0  0  0  0  0  0  0
   26.2939    4.2522   -8.5929 C   0  0  0  0  0  0  0  0  0  0  0  0
   23.5137    3.4645   -5.2029 N   0  0  0  0  0  0  0  0  0  0  0  0
   26.2014    2.5588   -6.5004 N   0  0  0  0  0  0  0  0  0  0  0  0
   25.5234    6.9670   -8.2456 N   0  0  0  0  0  0  0  0  0  0  0  0
   22.9371    7.6334   -4.6046 F   0  0  0  0  0  0  0  0  0  0  0  0
   24.3642    3.3246   -5.9986 N   0  0  0  0  0  0  0  0  0  0  0  0
   23.7899    4.2667   -8.5967 C   0  0  0  0  0  0  0  0  0  0  0  0
   22.1064    6.1073   -6.0885 C   0  0  0  0  0  0  0  0  0  0  0  0
   25.2520    3.3438   -6.8256 C   0  0  0  0  0  0  0  0  0  0  0  0
   27.2524    2.7773   -7.2306 C   0  0  0  0  0  0  0  0  0  0  0  0
  1  2  2  0
  1 16  1  0
  1 19  1  0
  2  8  1  0
  2  9  1  0
  3  6  1  0
  4  8  2  0
  4 10  1  0
  4 18  1  0
  5  6  2  3
  5 12  1  0
  6 15  1  0
  7 12  1  0
  7 21  2  0
  8 15  1  0
 10 19  2  0
 11 12  2  0
 11 18  1  0
 11 20  1  0
 13 17  1  0
 14 20  2  0
 14 21  1  0
 17 20  1  0
M  END
$$$$
