
     RDKit          3D

 20 20  0  0  0  0  0  0  0  0999 V2000
   35.0729    4.3239   -5.6090 C   0  0  0  0  0  0  0  0  0  0  0  0
   28.7362    2.7221  -11.5527 S   0  0  0  0  0  0  0  0  0  0  0  0
   39.3658    6.5223   -3.8920 O   0  0  0  0  0  0  0  0  0  0  0  0
   36.6788    4.8576   -3.7199 C   0  0  0  0  0  0  0  0  0  0  0  0
   36.0567    4.4131   -6.6549 C   0  0  0  0  0  0  0  0  0  0  0  0
   28.1582    2.4611   -9.8501 C   0  0  0  0  0  0  0  0  0  0  0  0
   30.3512    1.7612   -9.6152 O   0  0  0  0  0  0  0  0  0  0  0  0
   29.4543    2.3663   -9.0897 C   0  0  0  0  0  0  0  0  0  0  0  0
   37.4086    4.7885   -6.2311 C   0  0  0  0  0  0  0  0  0  0  0  0
   30.5312    2.4941   -4.5132 O   0  0  0  0  0  0  0  0  0  0  0  0
   29.4032    2.8876   -7.8045 N   0  0  0  0  0  0  0  0  0  0  0  0
   33.6197    4.1512   -5.7618 C   0  0  0  0  0  0  0  0  0  0  0  0
   32.9751    3.8338   -6.8344 C   0  0  0  0  0  0  0  0  0  0  0  0
   30.1995    2.0159   -5.5876 C   0  0  0  0  0  0  0  0  0  0  0  0
   37.7123    5.0036   -4.7790 C   0  0  0  0  0  0  0  0  0  0  0  0
   35.3576    4.4674   -4.1867 C   0  0  0  0  0  0  0  0  0  0  0  0
   30.7255    2.6473   -6.9729 C   0  0  0  0  0  0  0  0  0  0  0  0
   31.4759    4.0420   -6.8963 C   0  0  0  0  0  0  0  0  0  0  0  0
   29.0918    1.3233   -5.6109 N   0  0  0  0  0  0  0  0  0  0  0  0
   38.9847    5.3115   -4.2695 N   0  0  0  0  0  0  0  0  0  0  0  0
  1  5  1  0
  1 12  1  0
  1 16  2  0
  2  6  1  0
  3 20  1  0
  4 15  2  0
  4 16  1  0
  5  9  2  0
  6  8  1  0
  7  8  2  0
  8 11  1  0
  9 15  1  0
 10 14  2  0
 11 17  1  0
 12 13  2  3
 13 18  1  0
 14 17  1  0
 14 19  1  0
 15 20  1  0
 17 18  1  0
M  CHG  2   3  -1  20   1
M  END
$$$$
