
     RDKit          3D

 24 25  0  0  0  0  0  0  0  0999 V2000
   35.3020    4.4806   -5.2459 C   0  0  0  0  0  0  0  0  0  0  0  0
   32.7682    4.0494   -6.1796 C   0  0  0  0  0  0  0  0  0  0  0  0
   35.0839    4.2882   -6.6045 C   0  0  0  0  0  0  0  0  0  0  0  0
   37.5297    3.6178   -4.9459 C   0  0  0  0  0  0  0  0  0  0  0  0
   28.8338    2.1561  -10.7710 C   0  0  0  0  0  0  0  0  0  0  0  0
   39.1958    5.2114   -3.9274 C   0  0  0  0  0  0  0  0  0  0  0  0
   30.9774    1.7004   -9.4030 O   0  0  0  0  0  0  0  0  0  0  0  0
   29.6972    2.2319   -7.4280 N   0  0  0  0  0  0  0  0  0  0  0  0
   38.7960    3.8780   -4.3825 C   0  0  0  0  0  0  0  0  0  0  0  0
   29.7343    2.5286   -8.8403 C   0  0  0  0  0  0  0  0  0  0  0  0
   27.4012    2.1228   -8.6313 C   0  0  0  0  0  0  0  0  0  0  0  0
   38.3685    6.2686   -3.8239 C   0  0  0  0  0  0  0  0  0  0  0  0
   33.7730    4.0761   -7.1975 C   0  0  0  0  0  0  0  0  0  0  0  0
   34.2570    4.4756   -4.3594 C   0  0  0  0  0  0  0  0  0  0  0  0
   37.1112    5.9029   -4.3131 C   0  0  0  0  0  0  0  0  0  0  0  0
   30.5850    1.8814   -5.2823 C   0  0  0  0  0  0  0  0  0  0  0  0
   30.9371    2.4055   -6.6542 C   0  0  0  0  0  0  0  0  0  0  0  0
   32.9680    4.2698   -4.8493 C   0  0  0  0  0  0  0  0  0  0  0  0
   28.6026    1.7404   -9.3172 C   0  0  0  0  0  0  0  0  0  0  0  0
   29.7588    2.4825   -4.4785 O   0  0  0  0  0  0  0  0  0  0  0  0
   36.6365    4.6918   -4.8022 C   0  0  0  0  0  0  0  0  0  0  0  0
   29.5329    3.3893  -11.1798 O   0  0  0  0  0  0  0  0  0  0  0  0
   31.1085    0.7671   -4.9054 O   0  0  0  0  0  0  0  0  0  0  0  0
   31.3467    3.8682   -6.6356 C   0  0  0  0  0  0  0  0  0  0  0  0
  1  3  1  0
  1 14  2  0
  1 21  1  0
  2 13  1  0
  2 18  2  0
  2 24  1  0
  3 13  2  0
  4  9  1  0
  4 21  2  0
  5 19  1  0
  5 22  1  0
  6  9  2  0
  6 12  1  0
  7 10  1  0
  8 10  1  0
  8 17  1  0
 10 19  1  0
 11 19  1  0
 12 15  2  0
 14 18  1  0
 15 21  1  0
 16 17  1  0
 16 20  1  0
 16 23  2  0
 17 24  1  0
M  END
$$$$
