
     RDKit          3D

 44 47  0  0  0  0  0  0  0  0999 V2000
   -0.0006    1.7668   45.7661 C   0  0  1  0  0  0  0  0  0  0  0  0
    0.7014   -1.2709   42.4300 C   0  0  0  0  0  0  0  0  0  0  0  0
    4.9147    2.9519   34.9843 O   0  0  0  0  0  0  0  0  0  0  0  0
    6.6130    1.4522   35.1369 N   0  0  0  0  0  0  0  0  0  0  0  0
    2.1083    0.8596   42.7149 C   0  0  0  0  0  0  0  0  0  0  0  0
    1.9653   -1.0015   49.4818 P   0  0  2  0  0  0  0  0  0  0  0  0
    5.1649    1.4574   43.2346 C   0  0  0  0  0  0  0  0  0  0  0  0
   -2.2379   -0.8571   47.4550 C   0  0  0  0  0  0  0  0  0  0  0  0
    2.0806   -0.9668   47.8820 O   0  0  0  0  0  0  0  0  0  0  0  0
    2.1424    2.7287   46.9892 P   0  0  2  0  0  0  0  0  0  0  0  0
    3.4065    0.6241   40.7522 N   0  0  0  0  0  0  0  0  0  0  0  0
   -1.2749    1.2679   46.4739 C   0  0  2  0  0  0  0  0  0  0  0  0
   -0.4873   -2.5586   44.0412 O   0  0  0  0  0  0  0  0  0  0  0  0
    0.1960   -1.5513   43.8338 C   0  0  0  0  0  0  0  0  0  0  0  0
    4.4026    3.5277   42.3334 O   0  0  0  0  0  0  0  0  0  0  0  0
    1.2556    3.8508   47.7178 O   0  0  0  0  0  0  0  0  0  0  0  0
    2.4777   -0.5146   40.8249 C   0  0  0  0  0  0  0  0  0  0  0  0
    3.0100    1.6365   41.7562 C   0  0  2  0  0  0  0  0  0  0  0  0
    1.0717    1.5794   46.6806 O   0  0  0  0  0  0  0  0  0  0  0  0
    2.3795    1.6285   49.5211 C   0  0  2  0  0  0  0  0  0  0  0  0
    1.3131    1.4926   43.6011 C   0  0  0  0  0  0  0  0  0  0  0  0
    5.5878    2.0154   35.6671 C   0  0  0  0  0  0  0  0  0  0  0  0
   -3.5088   -0.2152   47.5594 O   0  0  0  0  0  0  0  0  0  0  0  0
    2.0865   -0.6115   42.3215 C   0  0  2  0  0  0  0  0  0  0  0  0
    4.2010    0.0076   38.5284 C   0  0  0  0  0  0  0  0  0  0  0  0
    2.5852    2.6820   50.6146 C   0  0  0  0  0  0  0  0  0  0  0  0
   -1.4449   -0.2597   46.2893 C   0  0  1  0  0  0  0  0  0  0  0  0
    5.0113    1.6645   36.9681 C   0  0  0  0  0  0  0  0  0  0  0  0
   -0.1656   -0.8959   46.1817 O   0  0  0  0  0  0  0  0  0  0  0  0
    2.7905    0.3103   50.0287 N   0  0  0  0  0  0  0  0  0  0  0  0
    4.2104    2.3107   42.4436 C   0  0  0  0  0  0  0  0  0  0  0  0
    4.7662    2.6569   37.9122 C   0  0  0  0  0  0  0  0  0  0  0  0
    3.1703   -1.4476   43.0350 C   0  0  0  0  0  0  0  0  0  0  0  0
   -2.4207    1.9454   45.9500 O   0  0  0  0  0  0  0  0  0  0  0  0
    3.1682    2.0082   48.2610 C   0  0  0  0  0  0  0  0  0  0  0  0
    2.8961   -2.4572   49.9148 C   0  0  0  0  0  0  0  0  0  0  0  0
    4.9414   -0.6993   36.4073 O   0  0  0  0  0  0  0  0  0  0  0  0
    0.2448    0.9072   44.5038 C   0  0  1  0  0  0  0  0  0  0  0  0
    0.5087   -0.5468   44.9495 C   0  0  2  0  0  0  0  0  0  0  0  0
    3.9154    0.9835   39.5039 C   0  0  0  0  0  0  0  0  0  0  0  0
    4.7317    0.3371   37.2777 C   0  0  0  0  0  0  0  0  0  0  0  0
    4.2285    2.3118   39.1608 C   0  0  0  0  0  0  0  0  0  0  0  0
    2.8326    3.2589   45.7765 O   0  0  0  0  0  0  0  0  0  0  0  0
    0.5261   -1.0721   49.8825 O   0  0  0  0  0  0  0  0  0  0  0  0
  1 12  1  0
  1 19  1  1
  1 38  1  0
  2 14  1  0
  2 24  1  0
  3 22  1  0
  4 22  2  0
  5 18  1  0
  5 21  2  0
  5 24  1  0
  6  9  1  0
  6 30  1  0
  6 36  1  1
  6 44  2  0
  7 31  1  0
  8 23  1  0
 27  8  1  1
 10 16  1  1
 10 19  1  0
 10 35  1  0
 10 43  2  0
 11 17  1  0
 11 18  1  0
 11 40  1  0
 12 27  1  0
 12 34  1  6
 13 14  2  0
 14 39  1  0
 15 31  2  0
 17 24  1  0
 18 31  1  1
 20 26  1  1
 20 30  1  0
 20 35  1  0
 38 21  1  1
 22 28  1  0
 24 33  1  1
 25 40  2  0
 25 41  1  0
 27 29  1  0
 28 32  1  0
 28 41  2  0
 39 29  1  1
 32 42  2  0
 37 41  1  0
 38 39  1  0
 40 42  1  0
M  END
$$$$
