
     RDKit          3D

 17 18  0  0  0  0  0  0  0  0999 V2000
   44.6789   11.6971   15.4919 C   0  0  0  0  0  0  0  0  0  0  0  0
   41.6024   13.4466   16.5540 C   0  0  0  0  0  0  0  0  0  0  0  0
   42.8766   12.8253   14.2653 C   0  0  0  0  0  0  0  0  0  0  0  0
   46.5155   12.3547   16.6418 C   0  0  0  0  0  0  0  0  0  0  0  0
   41.1410   14.1024   12.7622 Cl  0  0  0  0  0  0  0  0  0  0  0  0
   47.0219   12.8697   15.4994 N   0  0  0  0  0  0  0  0  0  0  0  0
   42.7379   12.7176   16.6210 C   0  0  0  0  0  0  0  0  0  0  0  0
   48.8728   13.6152   16.7324 C   0  0  0  0  0  0  0  0  0  0  0  0
   40.7975   13.9525   17.9661 Cl  0  0  0  0  0  0  0  0  0  0  0  0
   45.0811   11.0641   14.5060 O   0  0  0  0  0  0  0  0  0  0  0  0
   43.3824   12.3912   15.4574 C   0  0  0  0  0  0  0  0  0  0  0  0
   41.0961   13.8765   15.3821 C   0  0  0  0  0  0  0  0  0  0  0  0
   48.3481   13.1062   17.8710 C   0  0  0  0  0  0  0  0  0  0  0  0
   41.7342   13.5579   14.2377 C   0  0  0  0  0  0  0  0  0  0  0  0
   45.3322   11.7764   16.6532 N   0  0  0  0  0  0  0  0  0  0  0  0
   48.1954   13.4669   15.5825 C   0  0  0  0  0  0  0  0  0  0  0  0
   47.1710   12.4696   17.8226 C   0  0  0  0  0  0  0  0  0  0  0  0
  1 10  2  0
  1 11  1  0
  1 15  1  0
  2  7  2  0
  2  9  1  0
  2 12  1  0
  3 11  2  0
  3 14  1  0
  4  6  1  0
  4 15  1  0
  4 17  2  0
  5 14  1  0
  6 16  2  0
  7 11  1  0
  8 13  2  0
  8 16  1  0
 12 14  2  0
 13 17  1  0
M  END
$$$$
