
     RDKit          3D

 30 33  0  0  0  0  0  0  0  0999 V2000
   41.2755   13.4834   13.1954 C   0  0  0  0  0  0  0  0  0  0  0  0
   46.9695   12.8465   17.0300 N   0  0  0  0  0  0  0  0  0  0  0  0
   47.6028   14.3743   18.6863 O   0  0  0  0  0  0  0  0  0  0  0  0
   42.8075   12.2521   19.3112 Cl  0  0  0  0  0  0  0  0  0  0  0  0
   44.1359   11.6770   14.1279 C   0  0  0  0  0  0  0  0  0  0  0  0
   46.5693   11.5618   16.9129 C   0  0  0  0  0  0  0  0  0  0  0  0
   41.7311   13.3170   15.6361 C   0  0  0  0  0  0  0  0  0  0  0  0
   46.1073   12.1433   19.2632 C   0  0  0  0  0  0  0  0  0  0  0  0
   45.9206   11.2575   18.2185 C   0  0  0  0  0  0  0  0  0  0  0  0
   42.0032   13.0555   14.2002 C   0  0  0  0  0  0  0  0  0  0  0  0
   47.4788   10.8001   14.6001 O   0  0  0  0  0  0  0  0  0  0  0  0
   45.3331   13.2945   19.4590 O   0  0  0  0  0  0  0  0  0  0  0  0
   41.7568   13.1548   11.9805 N   0  0  0  0  0  0  0  0  0  0  0  0
   44.6430   12.0756   15.4095 O   0  0  0  0  0  0  0  0  0  0  0  0
   46.1506   10.6274   14.3213 C   0  0  0  0  0  0  0  0  0  0  0  0
   45.6022   11.0838   15.7235 C   0  0  0  0  0  0  0  0  0  0  0  0
   40.8314   14.2945   15.9043 C   0  0  0  0  0  0  0  0  0  0  0  0
   42.8662   12.5160   12.2032 C   0  0  0  0  0  0  0  0  0  0  0  0
   47.4912   12.9062   18.5230 S   0  0  0  0  0  0  0  0  0  0  0  0
   47.7630   13.4487   15.9653 C   0  0  0  0  0  0  0  0  0  0  0  0
   43.0641   12.4235   13.5158 C   0  0  0  0  0  0  0  0  0  0  0  0
   42.0636   12.9479   18.0622 C   0  0  0  0  0  0  0  0  0  0  0  0
   46.9592   13.9053   14.7311 C   0  0  0  0  0  0  0  0  0  0  0  0
   48.6889   12.0271   18.5038 O   0  0  0  0  0  0  0  0  0  0  0  0
   40.5045   14.6176   17.2149 C   0  0  0  0  0  0  0  0  0  0  0  0
   45.4088   11.4723   13.2590 C   0  0  0  0  0  0  0  0  0  0  0  0
   40.1373   14.1203   13.3744 N   0  0  0  0  0  0  0  0  0  0  0  0
   42.3152   12.6505   16.7063 C   0  0  0  0  0  0  0  0  0  0  0  0
   41.1356   13.9552   18.2824 C   0  0  0  0  0  0  0  0  0  0  0  0
   47.5716   14.1616   13.6864 O   0  0  0  0  0  0  0  0  0  0  0  0
  1 10  1  0
  1 13  2  0
  1 27  1  0
  2  6  1  0
  2 19  1  0
  2 20  1  0
  3 19  2  0
  4 22  1  0
  5 14  1  0
  5 21  1  0
  5 26  1  0
  6  9  1  0
  6 16  1  0
  7 10  1  0
  7 17  2  0
  7 28  1  0
  8  9  1  0
  8 12  1  0
  8 19  1  0
 10 21  2  0
 11 15  1  0
 13 18  1  0
 14 16  1  0
 15 16  1  0
 15 26  1  0
 17 25  1  0
 18 21  1  0
 19 24  2  0
 20 23  1  0
 22 28  2  0
 22 29  1  0
 23 30  2  0
 25 29  2  0
M  END
$$$$
