
     RDKit          3D

 20 21  0  0  0  0  0  0  0  0999 V2000
    1.5791    0.4874   -2.3826 C   0  0  0  0  0  0  0  0  0  0  0  0
    0.8672   -1.8942    2.9345 C   0  0  0  0  0  0  0  0  0  0  0  0
    0.5960    1.1480   -3.1127 O   0  0  0  0  0  0  0  0  0  0  0  0
   -2.9618   -0.1319    1.5198 C   0  0  0  0  0  0  0  0  0  0  0  0
   -1.7211   -0.5048    0.7754 C   0  0  0  0  0  0  0  0  0  0  0  0
    1.3905    0.2657   -0.9105 C   0  0  1  0  0  0  0  0  0  0  0  0
   -3.8136    0.3724    0.4544 N   0  0  0  0  0  0  0  0  0  0  0  0
   -0.4016   -1.3894    2.7414 C   0  0  0  0  0  0  0  0  0  0  0  0
    2.1979    2.9283   -0.2430 O   0  0  0  0  0  0  0  0  0  0  0  0
    1.0109   -1.2017   -0.6441 C   0  0  0  0  0  0  0  0  0  0  0  0
    2.6158    0.6260   -0.1900 N   0  0  0  0  0  0  0  0  0  0  0  0
   -3.6983    0.6795   -1.9680 C   0  0  0  0  0  0  0  0  0  0  0  0
   -3.1344    0.2985   -0.6415 C   0  0  0  0  0  0  0  0  0  0  0  0
    1.4884   -1.8833    1.7040 C   0  0  0  0  0  0  0  0  0  0  0  0
    2.6078    0.0500   -2.9657 O   0  0  0  0  0  0  0  0  0  0  0  0
    2.9628    1.9854    0.0966 C   0  0  0  0  0  0  0  0  0  0  0  0
    4.1554    2.2660    0.7551 O   0  0  0  0  0  0  0  0  0  0  0  0
    0.6512   -1.3987    0.7640 N   0  0  0  0  0  0  0  0  0  0  0  0
   -1.8372   -0.2543   -0.4843 N   0  0  0  0  0  0  0  0  0  0  0  0
   -0.5096   -1.0882    1.3951 C   0  0  0  0  0  0  0  0  0  0  0  0
  1  3  1  0
  1  6  1  0
  1 15  2  0
  2  8  1  0
  2 14  2  0
  4  5  1  0
  4  7  1  0
  5 19  2  0
  5 20  1  0
  6 10  1  6
  6 11  1  0
  7 13  2  0
  8 20  2  0
  9 16  2  0
 10 18  1  0
 11 16  1  0
 12 13  1  0
 13 19  1  0
 14 18  1  0
 16 17  1  0
 18 20  1  0
M  END
