
     RDKit          3D

 23 24  0  0  0  0  0  0  0  0999 V2000
   -2.8902   -0.6846    1.3329 C   0  0  2  0  0  0  0  0  0  0  0  0
   -3.7970   -1.7557    1.4113 O   0  0  0  0  0  0  0  0  0  0  0  0
   -4.0846    1.2000    2.2006 O   0  0  0  0  0  0  0  0  0  0  0  0
    2.4117   -0.7555   -1.3863 C   0  0  2  0  0  0  0  0  0  0  0  0
    3.7948    2.6278    0.5787 O   0  0  0  0  0  0  0  0  0  0  0  0
    0.2021   -1.6287   -1.8816 O   0  0  0  0  0  0  0  0  0  0  0  0
   -2.4732   -1.0369   -1.0683 O   0  0  0  0  0  0  0  0  0  0  0  0
    0.8823   -0.5399   -1.3088 C   0  0  1  0  0  0  0  0  0  0  0  0
    2.8147    0.4400    0.5704 C   0  0  2  0  0  0  0  0  0  0  0  0
    3.0926    0.3465   -0.8159 O   0  0  0  0  0  0  0  0  0  0  0  0
    1.0668    0.8348    2.1807 O   0  0  0  0  0  0  0  0  0  0  0  0
   -2.1420    1.4571   -2.2561 O   0  0  0  0  0  0  0  0  0  0  0  0
    4.3233    1.2978    2.3745 O   0  0  0  0  0  0  0  0  0  0  0  0
   -4.3867    0.1309   -2.4341 O   0  0  0  0  0  0  0  0  0  0  0  0
   -3.8605    1.1741   -0.0761 O   0  0  0  0  0  0  0  0  0  0  0  0
    2.8008   -0.8599   -2.7305 O   0  0  0  0  0  0  0  0  0  0  0  0
   -3.6281    0.6210    1.1801 C   0  0  0  0  0  0  0  0  0  0  0  0
    0.4384   -0.3121    0.1561 C   0  0  1  0  0  0  0  0  0  0  0  0
    1.3255    0.7693    0.8006 C   0  0  2  0  0  0  0  0  0  0  0  0
   -3.2444    0.4261   -1.4899 P   0  0  1  0  0  0  0  0  0  0  0  0
    3.6781    1.5157    1.1610 C   0  0  0  0  0  0  0  0  0  0  0  0
   -0.9048    0.1436    0.2040 O   0  0  0  0  0  0  0  0  0  0  0  0
   -1.8596   -0.9130    0.2026 C   0  0  1  0  0  0  0  0  0  0  0  0
  1  2  1  6
  1 17  1  0
  1 23  1  0
  3 17  2  0
  4  8  1  0
  4 10  1  0
  4 16  1  6
  5 21  2  0
  8  6  1  1
  7 20  1  0
  7 23  1  0
  8 18  1  0
  9 10  1  0
  9 19  1  0
  9 21  1  6
 19 11  1  1
 20 12  1  6
 13 21  1  0
 14 20  2  0
 15 17  1  0
 15 20  1  0
 18 19  1  0
 18 22  1  6
 23 22  1  6
M  END
