
     RDKit          3D

 20 20  0  0  0  0  0  0  0  0999 V2000
    1.2557   -1.3704   -1.6398 O   0  0  0  0  0  0  0  0  0  0  0  0
    0.1799    1.1832   -0.3594 O   0  0  0  0  0  0  0  0  0  0  0  0
   -4.0171   -0.6603    0.3325 O   0  0  0  0  0  0  0  0  0  0  0  0
   -3.1090    1.4239    1.2083 C   0  0  1  0  0  0  0  0  0  0  0  0
   -1.6052   -0.3252    0.3154 C   0  0  1  0  0  0  0  0  0  0  0  0
    1.7942    0.1122   -3.9329 O   0  0  0  0  0  0  0  0  0  0  0  0
    2.4676   -1.2828   -0.9595 C   0  0  0  0  0  0  0  0  0  0  0  0
    0.7121   -0.0936   -2.6484 P   0  0  1  0  0  0  0  0  0  0  0  0
   -0.6538   -0.4416   -3.1948 O   0  0  0  0  0  0  0  0  0  0  0  0
    0.6155    1.4477   -1.6773 C   0  0  0  0  0  0  0  0  0  0  0  0
   -3.3518    1.7923    2.5444 O   0  0  0  0  0  0  0  0  0  0  0  0
    2.0099   -3.3613    0.0509 O   0  0  0  0  0  0  0  0  0  0  0  0
    4.1387   -2.1641    0.6238 C   0  0  0  0  0  0  0  0  0  0  0  0
   -1.8243    2.0667    0.6683 C   0  0  1  0  0  0  0  0  0  0  0  0
   -1.2304    1.0345   -0.2876 C   0  0  0  0  0  0  0  0  0  0  0  0
   -2.1169    3.2652   -0.0012 O   0  0  0  0  0  0  0  0  0  0  0  0
    3.9730   -1.3584    1.7581 O   0  0  0  0  0  0  0  0  0  0  0  0
   -0.6135   -0.7976    1.1982 O   0  0  0  0  0  0  0  0  0  0  0  0
   -2.9418   -0.1042    1.0509 C   0  0  2  0  0  0  0  0  0  0  0  0
    2.8443   -2.2604   -0.1354 C   0  0  0  0  0  0  0  0  0  0  0  0
  1  7  1  0
  1  8  1  0
  2 10  1  0
  2 15  1  0
 19  3  1  6
  4 11  1  1
  4 14  1  0
  4 19  1  0
  5 15  1  0
  5 18  1  1
  5 19  1  0
  8  6  1  6
  7 20  2  3
  8  9  2  0
  8 10  1  0
 12 20  1  0
 13 17  1  0
 13 20  1  0
 14 15  1  0
 14 16  1  6
M  END
