
     RDKit          3D

 19 19  0  0  0  0  0  0  0  0999 V2000
    1.5773    0.0204   -0.5807 N   0  0  0  0  0  0  0  0  0  0  0  0
   -0.6479    0.9152    0.2542 C   0  0  0  0  0  0  0  0  0  0  0  0
    0.6510    0.2141    0.4974 C   0  0  0  0  0  0  0  0  0  0  0  0
   -1.8954   -0.2683   -0.3348 P   0  0  1  0  0  0  0  0  0  0  0  0
    3.8153    0.1683    1.6599 O   0  0  0  0  0  0  0  0  0  0  0  0
    5.3206   -2.1539    1.5251 O   0  0  0  0  0  0  0  0  0  0  0  0
   -5.6405    0.3484   -1.1467 C   0  0  0  0  0  0  0  0  0  0  0  0
    4.0483    1.5494   -0.1404 O   0  0  0  0  0  0  0  0  0  0  0  0
   -6.5285    0.5079   -0.0877 O   0  0  0  0  0  0  0  0  0  0  0  0
    5.3027   -0.5317    1.0459 P   0  0  1  0  0  0  0  0  0  0  0  0
    2.8573   -0.6612   -0.4054 C   0  0  0  0  0  0  0  0  0  0  0  0
   -1.4345   -0.8658   -1.6459 O   0  0  0  0  0  0  0  0  0  0  0  0
    0.9031   -0.2430    1.6452 O   0  0  0  0  0  0  0  0  0  0  0  0
   -4.3514   -0.3721   -0.9340 C   0  0  0  0  0  0  0  0  0  0  0  0
    3.8500    0.2453    0.3231 C   0  0  1  0  0  0  0  0  0  0  0  0
   -2.0811   -1.4993    0.8132 O   0  0  0  0  0  0  0  0  0  0  0  0
   -3.3685    0.5617   -0.5584 O   0  0  0  0  0  0  0  0  0  0  0  0
   -5.9046    0.8509   -2.2717 O   0  0  0  0  0  0  0  0  0  0  0  0
    6.4438    0.3135    1.5635 O   0  0  0  0  0  0  0  0  0  0  0  0
  1  3  1  0
  1 11  1  0
  2  3  1  0
  2  4  1  0
  3 13  2  0
  4 12  2  0
  4 16  1  1
  4 17  1  0
  5 10  1  0
  5 15  1  0
 10  6  1  6
  7  9  1  0
  7 14  1  0
  7 18  2  0
 15  8  1  1
 10 15  1  0
 10 19  2  0
 11 15  1  0
 14 17  1  0
M  END
