
     RDKit          3D

 21 23  0  0  0  0  0  0  0  0999 V2000
   21.3193  -52.9034   52.7625 C   0  0  0  0  0  0  0  0  0  0  0  0
   22.3700  -53.8017   52.4334 C   0  0  0  0  0  0  0  0  0  0  0  0
   18.9695  -52.6823   53.4640 O   0  0  0  0  0  0  0  0  0  0  0  0
   19.5085  -52.2950   50.5428 C   0  0  0  0  0  0  0  0  0  0  0  0
   19.6603  -48.8054   51.5980 O   0  0  0  0  0  0  0  0  0  0  0  0
   24.0103  -47.7197   53.4046 C   0  0  0  0  0  0  0  0  0  0  0  0
   21.0055  -55.6505   53.1010 C   0  0  0  0  0  0  0  0  0  0  0  0
   21.4543  -51.4934   52.6517 C   0  0  0  0  0  0  0  0  0  0  0  0
   20.4604  -50.7575   52.1440 N   0  0  0  0  0  0  0  0  0  0  0  0
   21.8345  -47.5585   52.4323 C   0  0  0  0  0  0  0  0  0  0  0  0
   21.7153  -48.8893   52.5148 C   0  0  0  0  0  0  0  0  0  0  0  0
   22.7454  -49.5926   53.0553 C   0  0  0  0  0  0  0  0  0  0  0  0
   19.9928  -54.8058   53.3821 C   0  0  0  0  0  0  0  0  0  0  0  0
   19.2321  -51.2860   51.5147 C   0  0  0  0  0  0  0  0  0  0  0  0
   20.1290  -53.4492   53.1966 C   0  0  0  0  0  0  0  0  0  0  0  0
   22.1697  -55.1466   52.6202 C   0  0  0  0  0  0  0  0  0  0  0  0
   22.9829  -47.0133   52.8685 C   0  0  0  0  0  0  0  0  0  0  0  0
   23.6920  -53.3796   51.8830 C   0  0  0  0  0  0  0  0  0  0  0  0
   22.5410  -50.9183   53.1117 N   0  0  0  0  0  0  0  0  0  0  0  0
   23.8738  -49.0414   53.4841 C   0  0  0  0  0  0  0  0  0  0  0  0
   20.5729  -49.4724   52.0687 C   0  0  0  0  0  0  0  0  0  0  0  0
  1  2  2  0
  1  8  1  0
  1 15  1  0
  2 16  1  0
  2 18  1  0
  3 15  1  0
  4 14  1  0
  5 21  2  0
  6 17  2  0
  6 20  1  0
  7 13  1  0
  7 16  2  0
  8  9  1  0
  8 19  2  0
  9 14  1  0
  9 21  1  0
 10 11  2  0
 10 17  1  0
 11 12  1  0
 11 21  1  0
 12 19  1  0
 12 20  2  0
 13 15  2  0
M  END
$$$$
