
     RDKit          3D

 21 22  0  0  0  0  0  0  0  0999 V2000
   22.1123  -46.8576   53.7096 C   0  0  0  0  0  0  0  0  0  0  0  0
   22.5284  -49.0584   52.9256 C   0  0  0  0  0  0  0  0  0  0  0  0
   22.9250  -47.9390   53.6260 C   0  0  0  0  0  0  0  0  0  0  0  0
   24.5138  -49.9885   53.5278 C   0  0  0  0  0  0  0  0  0  0  0  0
   21.4485  -51.3177   51.6324 N   0  0  0  0  0  0  0  0  0  0  0  0
   19.1948  -50.2896   51.4685 C   0  0  0  0  0  0  0  0  0  0  0  0
   18.7090  -51.1144   52.2736 O   0  0  0  0  0  0  0  0  0  0  0  0
   24.8981  -51.4991   53.7650 C   0  0  0  0  0  0  0  0  0  0  0  0
   21.2990  -49.0233   52.2768 C   0  0  0  0  0  0  0  0  0  0  0  0
   20.6945  -50.1273   51.4317 C   0  0  0  0  0  0  0  0  0  0  0  0
   21.8486  -53.4149   52.5941 C   0  0  0  0  0  0  0  0  0  0  0  0
   22.6971  -53.3857   51.3073 C   0  0  0  0  0  0  0  0  0  0  0  0
   21.3125  -52.0331   52.8575 C   0  0  0  0  0  0  0  0  0  0  0  0
   20.7960  -55.7033   52.6927 O   0  0  0  0  0  0  0  0  0  0  0  0
   18.5019  -49.6353   50.6914 O   0  0  0  0  0  0  0  0  0  0  0  0
   23.3841  -50.0789   52.6880 O   0  0  0  0  0  0  0  0  0  0  0  0
   20.8616  -46.8831   53.1234 C   0  0  0  0  0  0  0  0  0  0  0  0
   20.6766  -54.3418   52.4309 C   0  0  0  0  0  0  0  0  0  0  0  0
   22.3400  -51.9866   50.7120 C   0  0  0  0  0  0  0  0  0  0  0  0
   19.5371  -54.1837   52.0606 O   0  0  0  0  0  0  0  0  0  0  0  0
   20.4202  -47.9548   52.3881 C   0  0  0  0  0  0  0  0  0  0  0  0
  1  3  1  0
  1 17  2  0
  2  3  2  0
  2  9  1  0
  2 16  1  0
  4  8  1  0
  4 16  1  0
  5 10  1  0
  5 13  1  0
  5 19  1  0
  6  7  1  0
  6 10  1  0
  6 15  2  0
  9 10  1  0
  9 21  2  0
 11 12  1  0
 11 13  1  0
 11 18  1  0
 12 19  1  0
 14 18  2  0
 17 21  1  0
 18 20  1  0
M  END
$$$$
