
     RDKit          3D

 20 21  0  0  0  0  0  0  0  0999 V2000
   21.4819  -50.9085   50.9608 C   0  0  0  0  0  0  0  0  0  0  0  0
   21.7934  -48.2760   53.4373 C   0  0  0  0  0  0  0  0  0  0  0  0
   22.7457  -47.7481   54.4970 C   0  0  0  0  0  0  0  0  0  0  0  0
   21.5519  -53.3122   51.8154 C   0  0  0  0  0  0  0  0  0  0  0  0
   21.2580  -49.4240   51.3475 C   0  0  0  0  0  0  0  0  0  0  0  0
   23.5461  -52.8149   53.0871 O   0  0  0  0  0  0  0  0  0  0  0  0
   18.6056  -49.9726   52.7902 O   0  0  0  0  0  0  0  0  0  0  0  0
   24.5613  -48.7261   53.1560 C   0  0  0  0  0  0  0  0  0  0  0  0
   23.0377  -53.4471   51.9072 C   0  0  0  0  0  0  0  0  0  0  0  0
   18.7653  -50.8142   51.7379 C   0  0  0  0  0  0  0  0  0  0  0  0
   19.5115  -52.0711   51.9727 C   0  0  0  0  0  0  0  0  0  0  0  0
   21.0199  -51.8460   52.0894 C   0  0  0  0  0  0  0  0  0  0  0  0
   19.5093  -54.3281   52.8922 C   0  0  0  0  0  0  0  0  0  0  0  0
   23.8142  -54.0259   51.0494 O   0  0  0  0  0  0  0  0  0  0  0  0
   24.0959  -48.0898   54.2791 C   0  0  0  0  0  0  0  0  0  0  0  0
   18.2450  -50.5620   50.6044 O   0  0  0  0  0  0  0  0  0  0  0  0
   18.9893  -52.9336   53.1567 C   0  0  0  0  0  0  0  0  0  0  0  0
   20.9890  -54.4142   52.7026 C   0  0  0  0  0  0  0  0  0  0  0  0
   23.6300  -49.2605   52.2266 C   0  0  0  0  0  0  0  0  0  0  0  0
   22.2400  -48.9739   52.4029 C   0  0  0  0  0  0  0  0  0  0  0  0
  1  5  1  0
  1 12  1  0
  2  3  1  0
  2 20  2  0
  3 15  2  0
  4  9  1  0
  4 12  1  0
  4 18  1  0
  5 20  1  0
  6  9  2  0
  7 10  2  0
  8 15  1  0
  8 19  2  0
  9 14  1  0
 10 11  1  0
 10 16  1  0
 11 12  1  0
 11 17  1  0
 13 17  1  0
 13 18  1  0
 19 20  1  0
M  END
$$$$
