
     RDKit          3D

 19 21  0  0  0  0  0  0  0  0999 V2000
   18.4269  -49.8113   50.4305 O   0  0  0  0  0  0  0  0  0  0  0  0
   22.7860  -54.9515   52.6083 C   0  0  0  0  0  0  0  0  0  0  0  0
   20.4471  -54.9368   53.1126 C   0  0  0  0  0  0  0  0  0  0  0  0
   18.3734  -50.6377   52.5528 O   0  0  0  0  0  0  0  0  0  0  0  0
   24.2753  -48.4117   53.2007 C   0  0  0  0  0  0  0  0  0  0  0  0
   22.7589  -53.6139   52.3006 C   0  0  0  0  0  0  0  0  0  0  0  0
   21.4316  -51.4964   52.0747 C   0  0  0  0  0  0  0  0  0  0  0  0
   22.5529  -50.5712   52.4608 C   0  0  0  0  0  0  0  0  0  0  0  0
   19.9994  -48.8351   52.1394 C   0  0  0  0  0  0  0  0  0  0  0  0
   23.7179  -50.8336   53.2429 C   0  0  0  0  0  0  0  0  0  0  0  0
   20.3194  -51.2183   51.1912 O   0  0  0  0  0  0  0  0  0  0  0  0
   20.4158  -53.6273   52.7876 C   0  0  0  0  0  0  0  0  0  0  0  0
   24.5891  -49.7486   53.5803 C   0  0  0  0  0  0  0  0  0  0  0  0
   21.6370  -55.5950   53.0153 C   0  0  0  0  0  0  0  0  0  0  0  0
   19.2072  -50.1246   51.4598 P   0  0  0  0  0  0  0  0  0  0  0  0
   21.5748  -52.9481   52.3801 C   0  0  0  0  0  0  0  0  0  0  0  0
   22.3177  -49.1993   52.1060 C   0  0  0  0  0  0  0  0  0  0  0  0
   23.1775  -48.1752   52.4448 C   0  0  0  0  0  0  0  0  0  0  0  0
   21.2878  -48.8279   51.3933 O   0  0  0  0  0  0  0  0  0  0  0  0
  1 15  1  0
  2  6  1  0
  2 14  2  0
  3 12  2  0
  3 14  1  0
  4 15  2  0
  5 13  2  0
  5 18  1  0
  6 16  2  0
  7  8  1  0
  7 11  1  0
  7 16  1  0
  8 10  2  0
  8 17  1  0
  9 15  1  0
  9 19  1  0
 10 13  1  0
 11 15  1  0
 12 16  1  0
 17 18  2  0
 17 19  1  0
M  END
$$$$
