
     RDKit          3D

 23 25  0  0  0  0  0  0  0  0999 V2000
   20.4522  -52.8530   51.8620 C   0  0  0  0  0  0  0  0  0  0  0  0
   22.2751  -47.9134   51.7064 C   0  0  0  0  0  0  0  0  0  0  0  0
   19.4655  -54.8516   52.5534 C   0  0  0  0  0  0  0  0  0  0  0  0
   19.0896  -50.9337   51.7219 C   0  0  0  0  0  0  0  0  0  0  0  0
   20.6842  -55.3891   52.8477 C   0  0  0  0  0  0  0  0  0  0  0  0
   23.9460  -47.9878   53.4925 C   0  0  0  0  0  0  0  0  0  0  0  0
   18.4320  -51.2207   52.9113 O   0  0  0  0  0  0  0  0  0  0  0  0
   18.7080  -49.6231   51.5277 C   0  0  0  0  0  0  0  0  0  0  0  0
   23.3557  -51.4251   52.4533 N   0  0  0  0  0  0  0  0  0  0  0  0
   23.1138  -47.2667   52.6583 C   0  0  0  0  0  0  0  0  0  0  0  0
   22.8337  -52.6348   51.7449 C   0  0  0  0  0  0  0  0  0  0  0  0
   24.8882  -52.8592   53.6755 C   0  0  0  0  0  0  0  0  0  0  0  0
   20.2072  -51.6600   51.3752 N   0  0  0  0  0  0  0  0  0  0  0  0
   19.0103  -49.7527   50.4828 O   0  0  0  0  0  0  0  0  0  0  0  0
   18.7695  -48.7421   52.2662 O   0  0  0  0  0  0  0  0  0  0  0  0
   24.6440  -50.3494   53.9023 N   0  0  0  0  0  0  0  0  0  0  0  0
   21.8501  -54.6576   52.6686 C   0  0  0  0  0  0  0  0  0  0  0  0
   21.7464  -53.3090   52.2451 C   0  0  0  0  0  0  0  0  0  0  0  0
   24.2829  -51.5527   53.3976 C   0  0  0  0  0  0  0  0  0  0  0  0
   23.8906  -49.4353   53.3390 C   0  0  0  0  0  0  0  0  0  0  0  0
   23.1254  -50.0611   52.3809 C   0  0  0  0  0  0  0  0  0  0  0  0
   19.3196  -53.6268   52.0047 C   0  0  0  0  0  0  0  0  0  0  0  0
   22.2754  -49.3365   51.5724 C   0  0  0  0  0  0  0  0  0  0  0  0
  1 13  1  0
  1 18  1  0
  1 22  2  0
  2 10  2  0
  2 23  1  0
  3  5  2  0
  3 22  1  0
  4  7  2  0
  4  8  1  0
  4 13  1  0
  5 17  1  0
  6 10  1  0
  6 20  2  0
  8 14  1  0
  8 15  2  0
  9 11  1  0
  9 19  1  0
  9 21  1  0
 11 18  1  0
 12 19  1  0
 16 19  2  0
 16 20  1  0
 17 18  2  0
 20 21  1  0
 21 23  2  0
M  END
$$$$
