
     RDKit          3D

 18 20  0  0  0  0  0  0  0  0999 V2000
   20.1462  -50.4905   51.8060 C   0  0  0  0  0  0  0  0  0  0  0  0
   19.1460  -50.9723   52.3745 O   0  0  0  0  0  0  0  0  0  0  0  0
   23.3246  -54.3753   53.1288 C   0  0  0  0  0  0  0  0  0  0  0  0
   19.8599  -53.5992   51.9836 C   0  0  0  0  0  0  0  0  0  0  0  0
   24.6730  -48.6565   53.4333 C   0  0  0  0  0  0  0  0  0  0  0  0
   23.6140  -47.9190   52.9922 C   0  0  0  0  0  0  0  0  0  0  0  0
   22.4699  -48.5319   52.5542 C   0  0  0  0  0  0  0  0  0  0  0  0
   21.8399  -52.1199   52.4965 C   0  0  0  0  0  0  0  0  0  0  0  0
   22.3851  -49.8939   52.5723 C   0  0  0  0  0  0  0  0  0  0  0  0
   23.9059  -53.0822   53.2544 C   0  0  0  0  0  0  0  0  0  0  0  0
   22.0163  -54.5705   52.7202 C   0  0  0  0  0  0  0  0  0  0  0  0
   21.2634  -53.4433   52.4087 C   0  0  0  0  0  0  0  0  0  0  0  0
   23.1639  -51.9846   52.9307 C   0  0  0  0  0  0  0  0  0  0  0  0
   21.5457  -55.9758   52.6995 C   0  0  0  0  0  0  0  0  0  0  0  0
   23.4735  -50.6154   53.0101 C   0  0  0  0  0  0  0  0  0  0  0  0
   20.1096  -49.6391   50.8319 O   0  0  0  0  0  0  0  0  0  0  0  0
   21.4178  -50.8033   52.2171 N   0  0  0  0  0  0  0  0  0  0  0  0
   24.5954  -50.0168   53.4363 C   0  0  0  0  0  0  0  0  0  0  0  0
  1  2  1  0
  1 16  2  0
  1 17  1  0
  3 10  1  0
  3 11  2  0
  4 12  1  0
  5  6  2  0
  5 18  1  0
  6  7  1  0
  7  9  2  0
  8 12  2  0
  8 13  1  0
  8 17  1  0
  9 15  1  0
  9 17  1  0
 10 13  2  0
 11 12  1  0
 11 14  1  0
 13 15  1  0
 15 18  2  0
M  END
$$$$
