
     RDKit          3D

 12 13  0  0  0  0  0  0  0  0999 V2000
   23.5094  -52.0777   52.1153 C   0  0  0  0  0  0  0  0  0  0  0  0
   25.6964  -51.0955   53.9655 O   0  0  0  0  0  0  0  0  0  0  0  0
   21.6728  -50.6707   52.3377 C   0  0  0  0  0  0  0  0  0  0  0  0
   24.2400  -53.1780   51.9179 C   0  0  0  0  0  0  0  0  0  0  0  0
   19.8794  -52.2849   52.0992 C   0  0  0  0  0  0  0  0  0  0  0  0
   19.9265  -50.4753   52.3564 S   0  0  0  0  0  0  0  0  0  0  0  0
   21.1031  -52.9164   51.9889 N   0  0  0  0  0  0  0  0  0  0  0  0
   24.2580  -49.3900   54.3667 O   0  0  0  0  0  0  0  0  0  0  0  0
   23.9006  -50.6418   52.3492 C   0  0  1  0  0  0  0  0  0  0  0  0
   22.6229  -49.8089   52.5006 N   0  0  0  0  0  0  0  0  0  0  0  0
   22.0561  -52.0692   52.1159 C   0  0  0  0  0  0  0  0  0  0  0  0
   24.7229  -50.4372   53.6326 C   0  0  0  0  0  0  0  0  0  0  0  0
  1  4  2  0
  1  9  1  0
  1 11  1  0
  2 12  2  0
  3  6  1  0
  3 10  2  0
  3 11  1  0
  5  6  2  0
  5  7  1  0
  7 11  2  0
  8 12  1  0
  9 10  1  0
  9 12  1  1
M  END
$$$$
