
     RDKit          3D

 24 28  0  0  0  0  0  0  0  0999 V2000
   18.6216   29.0521  -12.6440 C   0  0  0  0  0  0  0  0  0  0  0  0
   27.0032   29.6605  -14.9813 C   0  0  1  0  0  0  0  0  0  0  0  0
   28.9194   31.2426  -13.8611 C   0  0  0  0  0  0  0  0  0  0  0  0
   19.1899   30.1011  -11.9636 N   0  0  0  0  0  0  0  0  0  0  0  0
   23.8221   30.5866  -14.9134 O   0  0  0  0  0  0  0  0  0  0  0  0
   22.2738   31.6362  -13.4756 C   0  0  1  0  0  0  0  0  0  0  0  0
   27.9348   30.7896  -14.8435 C   0  0  0  0  0  0  0  0  0  0  0  0
   27.0717   28.8167  -16.2159 C   0  0  0  0  0  0  0  0  0  0  0  0
   20.3670   30.3936  -12.5893 C   0  0  0  0  0  0  0  0  0  0  0  0
   25.7621   31.7185  -14.1270 O   0  0  0  0  0  0  0  0  0  0  0  0
   23.6017   32.3123  -13.2567 C   0  0  0  0  0  0  0  0  0  0  0  0
   19.3599   28.6668  -13.6574 N   0  0  0  0  0  0  0  0  0  0  0  0
   25.7893   28.6563  -16.9831 C   0  0  0  0  0  0  0  0  0  0  0  0
   29.2587   31.1466  -15.3508 C   0  0  0  0  0  0  0  0  0  0  0  0
   24.3892   31.8414  -14.4819 C   0  0  2  0  0  0  0  0  0  0  0  0
   22.7467   30.2782  -14.0173 C   0  0  1  0  0  0  0  0  0  0  0  0
   21.3448   31.4689  -12.2615 C   0  0  0  0  0  0  0  0  0  0  0  0
   17.4428   28.5436  -12.2632 N   0  0  0  0  0  0  0  0  0  0  0  0
   26.6193   28.9464  -13.7097 C   0  0  0  0  0  0  0  0  0  0  0  0
   28.1207   28.2743  -16.5460 O   0  0  0  0  0  0  0  0  0  0  0  0
   20.4592   29.4810  -13.6230 C   0  0  0  0  0  0  0  0  0  0  0  0
   21.1306   30.0710  -15.8500 O   0  0  0  0  0  0  0  0  0  0  0  0
   21.5728   29.4689  -14.6282 C   0  0  1  0  0  0  0  0  0  0  0  0
   26.5611   31.1435  -15.1832 C   0  0  2  0  0  0  0  0  0  0  0  0
  1  4  1  0
  1 12  2  0
  1 18  1  0
  2  7  1  0
  2  8  1  0
  2 19  1  1
  2 24  1  0
  3  7  1  0
  3 14  1  0
  4  9  1  0
  5 15  1  0
 16  5  1  6
  6 11  1  1
  6 16  1  0
  6 17  1  0
  7 14  1  0
  7 24  1  0
  8 13  1  0
  8 20  2  0
  9 17  1  0
  9 21  2  0
 15 10  1  1
 24 10  1  1
 11 15  1  0
 12 21  1  0
 16 23  1  0
 21 23  1  0
 23 22  1  6
M  END
$$$$
