
     RDKit          3D

 20 22  0  0  0  0  0  0  0  0999 V2000
   20.0069   36.7401   10.1315 C   0  0  0  0  0  0  0  0  0  0  0  0
   13.5250   34.8509   15.7746 N   0  0  0  0  0  0  0  0  0  0  0  0
   13.5342   33.5087   15.5846 C   0  0  0  0  0  0  0  0  0  0  0  0
   14.7337   35.2876   16.1830 C   0  0  0  0  0  0  0  0  0  0  0  0
   14.9115   30.0854   14.5844 C   0  0  0  0  0  0  0  0  0  0  0  0
   15.1322   34.0233   10.2483 O   0  0  0  0  0  0  0  0  0  0  0  0
   17.0097   33.6967   12.4899 C   0  0  1  0  0  0  0  0  0  0  0  0
   17.1671   32.4540   11.8088 O   0  0  0  0  0  0  0  0  0  0  0  0
   12.5224   32.7463   15.3813 N   0  0  0  0  0  0  0  0  0  0  0  0
   18.6584   36.3775   10.3976 O   0  0  0  0  0  0  0  0  0  0  0  0
   13.6277   30.8288   14.2810 C   0  0  1  0  0  0  0  0  0  0  0  0
   15.6912   34.4001   16.2094 N   0  0  0  0  0  0  0  0  0  0  0  0
   17.1000   34.8567   11.4685 C   0  0  1  0  0  0  0  0  0  0  0  0
   15.0096   33.1109   15.7342 C   0  0  2  0  0  0  0  0  0  0  0  0
   18.5764   35.2195   11.2298 C   0  0  0  0  0  0  0  0  0  0  0  0
   12.8029   31.3143   15.4243 C   0  0  0  0  0  0  0  0  0  0  0  0
   15.6378   32.6229   14.4133 C   0  0  0  0  0  0  0  0  0  0  0  0
   14.9676   31.3874   13.8326 C   0  0  1  0  0  0  0  0  0  0  0  0
   15.7032   33.7314   13.3160 C   0  0  0  0  0  0  0  0  0  0  0  0
   16.4350   34.5742   10.1103 C   0  0  0  0  0  0  0  0  0  0  0  0
  1 10  1  0
  2  3  1  0
  2  4  1  0
  3  9  2  0
  3 14  1  0
  4 12  2  0
 11  5  1  1
 18  5  1  1
  6 20  1  0
  7  8  1  6
  7 13  1  0
  7 19  1  0
  9 16  1  0
 10 15  1  0
 11 16  1  0
 11 18  1  0
 12 14  1  0
 13 15  1  6
 13 20  1  0
 14 17  1  6
 17 18  1  0
 17 19  1  0
M  END
$$$$
