
     RDKit          3D

 32 33  0  0  0  0  0  0  0  0999 V2000
    7.8476    2.1134   -0.8018 C   0  0  0  0  0  0  0  0  0  0  0  0
    0.2249   -3.2041   -1.0276 C   0  0  0  0  0  0  0  0  0  0  0  0
   -5.3319    2.1731    1.3923 C   0  0  0  0  0  0  0  0  0  0  0  0
    6.0274    0.4625   -0.2373 C   0  0  0  0  0  0  0  0  0  0  0  0
   -0.4713   -0.9070   -0.3476 C   0  0  0  0  0  0  0  0  0  0  0  0
    3.6391    0.9095   -0.4007 C   0  0  0  0  0  0  0  0  0  0  0  0
    6.7897   -1.7326    0.4208 O   0  0  0  0  0  0  0  0  0  0  0  0
    4.9630    1.3445   -0.5033 C   0  0  0  0  0  0  0  0  0  0  0  0
   -5.7714    2.2223    2.8648 C   0  0  0  0  0  0  0  0  0  0  0  0
    3.3504   -0.4184   -0.0352 C   0  0  0  0  0  0  0  0  0  0  0  0
    4.4134   -1.2887    0.2494 C   0  0  0  0  0  0  0  0  0  0  0  0
   -6.4569    3.5466    3.1903 C   0  0  0  0  0  0  0  0  0  0  0  0
   -5.2957   -0.3608    1.1427 C   0  0  0  0  0  0  0  0  0  0  0  0
   -0.3577    0.7395    2.0708 O   0  0  0  0  0  0  0  0  0  0  0  0
   -3.8514    1.0954   -0.3557 C   0  0  0  0  0  0  0  0  0  0  0  0
   -4.4686    0.9327    1.0580 C   0  0  1  0  0  0  0  0  0  0  0  0
    1.9641   -0.9267    0.0967 C   0  0  0  0  0  0  0  0  0  0  0  0
    0.9068   -0.3818   -0.5222 C   0  0  0  0  0  0  0  0  0  0  0  0
    0.5481   -4.4449   -0.2473 C   0  0  0  0  0  0  0  0  0  0  0  0
   -1.1648    1.1153    1.0006 C   0  0  0  0  0  0  0  0  0  0  0  0
    7.7501    2.1897   -2.3265 C   0  0  0  0  0  0  0  0  0  0  0  0
    7.3750    0.8521   -0.3278 O   0  0  0  0  0  0  0  0  0  0  0  0
   -2.9842   -0.8798   -1.8076 C   0  0  0  0  0  0  0  0  0  0  0  0
    5.7422   -0.8550    0.1454 C   0  0  0  0  0  0  0  0  0  0  0  0
   -0.7618   -2.2309   -0.4910 C   0  0  0  0  0  0  0  0  0  0  0  0
   -2.1575   -2.7376   -0.2170 C   0  0  0  0  0  0  0  0  0  0  0  0
   -1.5280    2.3170    0.8970 O   0  0  0  0  0  0  0  0  0  0  0  0
   -2.7429    0.0947   -0.6646 C   0  0  0  0  0  0  0  0  0  0  0  0
   -3.1264   -2.3405   -1.3405 C   0  0  0  0  0  0  0  0  0  0  0  0
    8.2215    3.4288   -2.7813 O   0  0  0  0  0  0  0  0  0  0  0  0
   -1.5312    0.1043   -0.0258 C   0  0  0  0  0  0  0  0  0  0  0  0
    0.7467   -3.0335   -2.2462 C   0  0  0  0  0  0  0  0  0  0  0  0
  1 21  1  0
  1 22  1  0
  2 19  1  0
  2 25  1  0
  2 32  2  0
  3  9  1  0
  3 16  1  0
  4  8  1  0
  4 22  1  0
  4 24  2  0
  5 18  1  0
  5 25  2  0
  5 31  1  0
  6  8  2  0
  6 10  1  0
  7 24  1  0
  9 12  1  0
 10 11  2  0
 10 17  1  0
 11 24  1  0
 16 13  1  6
 14 20  1  0
 15 16  1  0
 15 28  1  0
 17 18  2  3
 20 27  2  0
 20 31  1  0
 21 30  1  0
 23 28  1  0
 23 29  1  0
 25 26  1  0
 26 29  1  0
 28 31  2  0
M  END
