
     RDKit          3D

 31 31  0  0  0  0  0  0  0  0999 V2000
   -0.3451    2.0543    3.1559 C   0  0  0  0  0  0  0  0  0  0  0  0
    0.4010    1.5030    1.9400 C   0  0  0  0  0  0  0  0  0  0  0  0
   -1.6904    1.2978    0.5200 C   0  0  0  0  0  0  0  0  0  0  0  0
   -1.9596   -0.0155    0.6213 C   0  0  0  0  0  0  0  0  0  0  0  0
    4.2449    1.2745    1.0956 O   0  0  0  0  0  0  0  0  0  0  0  0
   -0.2882    1.8739    0.6041 C   0  0  2  0  0  0  0  0  0  0  0  0
   -6.4996   -0.8015   -0.4977 C   0  0  0  0  0  0  0  0  0  0  0  0
    1.7843   -1.9849   -0.7944 C   0  0  0  0  0  0  0  0  0  0  0  0
   -3.3677   -0.5348    0.5304 C   0  0  0  0  0  0  0  0  0  0  0  0
    6.9700    0.6536   -1.3297 C   0  0  0  0  0  0  0  0  0  0  0  0
    4.4771   -1.5536    1.3066 N   0  0  0  0  0  0  0  0  0  0  0  0
   -6.6604   -1.4348    0.9052 C   0  0  0  0  0  0  0  0  0  0  0  0
   -3.9156   -0.3912   -0.8971 C   0  0  0  0  0  0  0  0  0  0  0  0
    7.1003   -0.7340   -1.2352 C   0  0  0  0  0  0  0  0  0  0  0  0
    4.5287   -1.2744    2.7441 C   0  0  0  0  0  0  0  0  0  0  0  0
   -1.0913    1.7517   -2.5604 C   0  0  0  0  0  0  0  0  0  0  0  0
   -6.5821    0.6037   -0.4255 O   0  0  0  0  0  0  0  0  0  0  0  0
    3.1584   -3.4597    1.6334 O   0  0  0  0  0  0  0  0  0  0  0  0
    5.3139   -0.7971    0.4121 C   0  0  0  0  0  0  0  0  0  0  0  0
    3.1467   -2.6666   -0.6110 C   0  0  0  0  0  0  0  0  0  0  0  0
    6.2793   -1.4566   -0.3658 C   0  0  0  0  0  0  0  0  0  0  0  0
    3.6108   -2.6046    0.8239 C   0  0  0  0  0  0  0  0  0  0  0  0
   -5.1670   -1.2494   -1.1798 C   0  0  0  0  0  0  0  0  0  0  0  0
   -7.6812   -1.2812   -1.3602 C   0  0  0  0  0  0  0  0  0  0  0  0
    6.0203    1.3215   -0.5518 C   0  0  0  0  0  0  0  0  0  0  0  0
    5.1922    0.6036    0.3232 C   0  0  0  0  0  0  0  0  0  0  0  0
    0.5953    0.0953   -0.8404 O   0  0  0  0  0  0  0  0  0  0  0  0
    0.2118    2.2338   -1.9174 C   0  0  0  0  0  0  0  0  0  0  0  0
    0.6065    1.4984   -0.6155 C   0  0  1  0  0  0  0  0  0  0  0  0
    7.7675    1.3529   -2.1742 F   0  0  0  0  0  0  0  0  0  0  0  0
    1.8669   -0.4700   -0.6085 C   0  0  0  0  0  0  0  0  0  0  0  0
  1  2  1  0
  6  2  1  1
  3  4  2  3
  3  6  1  0
  4  9  1  0
  5 26  1  0
  6 29  1  0
  7 12  1  0
  7 17  1  0
  7 23  1  0
  7 24  1  0
  8 20  1  0
  8 31  1  0
  9 13  1  0
 10 14  1  0
 10 25  2  0
 10 30  1  0
 11 15  1  0
 11 19  1  0
 11 22  1  0
 13 23  1  0
 14 21  2  0
 16 28  1  0
 18 22  2  0
 19 21  1  0
 19 26  2  0
 20 22  1  0
 25 26  1  0
 27 29  1  0
 27 31  1  0
 29 28  1  6
M  END
