
     RDKit          3D

 33 34  0  0  0  0  0  0  0  0999 V2000
   -1.9796    4.5489   -0.1514 C   0  0  0  0  0  0  0  0  0  0  0  0
   -1.2060    2.3491   -0.8441 C   0  0  0  0  0  0  0  0  0  0  0  0
    3.4802   -0.2993    0.8357 N   0  0  0  0  0  0  0  0  0  0  0  0
   -1.4303   -1.2723    0.1527 C   0  0  0  0  0  0  0  0  0  0  0  0
   -3.3043    4.1351   -0.3051 C   0  0  0  0  0  0  0  0  0  0  0  0
    4.4321   -2.5283    0.4551 C   0  0  0  0  0  0  0  0  0  0  0  0
   -3.5936    2.8395   -0.7498 C   0  0  0  0  0  0  0  0  0  0  0  0
   -0.0996    1.3411   -1.0787 C   0  0  0  0  0  0  0  0  0  0  0  0
   -4.1250   -4.1146    0.0850 C   0  0  0  0  0  0  0  0  0  0  0  0
    5.3036   -4.7484    0.1542 O   0  0  0  0  0  0  0  0  0  0  0  0
    6.0807   -2.9208   -1.2833 C   0  0  0  0  0  0  0  0  0  0  0  0
    0.8502    5.3298    0.1920 C   0  0  0  0  0  0  0  0  0  0  0  0
   -5.0162    2.3791   -0.8700 C   0  0  0  0  0  0  0  0  0  0  0  0
   -3.1723   -2.7250   -1.5674 F   0  0  0  0  0  0  0  0  0  0  0  0
    2.2013    1.7246    1.3504 C   0  0  0  0  0  0  0  0  0  0  0  0
    5.2795   -3.4063   -0.2307 C   0  0  0  0  0  0  0  0  0  0  0  0
    5.1730   -0.6953   -0.9431 C   0  0  0  0  0  0  0  0  0  0  0  0
    4.3670   -1.1697    0.1083 C   0  0  0  0  0  0  0  0  0  0  0  0
    6.9662   -3.7929   -2.0138 C   0  0  0  0  0  0  0  0  0  0  0  0
    6.0213   -1.5661   -1.6314 C   0  0  0  0  0  0  0  0  0  0  0  0
   -2.6351   -2.0488    0.6871 C   0  0  0  0  0  0  0  0  0  0  0  0
   -3.8559   -1.1007    0.7746 C   0  0  0  0  0  0  0  0  0  0  0  0
   -0.9108   -0.1929    0.7679 C   0  0  0  0  0  0  0  0  0  0  0  0
   -2.9285   -3.2326   -0.2999 C   0  0  0  0  0  0  0  0  0  0  0  0
   -2.5431    1.9505   -1.0086 C   0  0  0  0  0  0  0  0  0  0  0  0
   -2.3012   -2.5878    2.0988 C   0  0  0  0  0  0  0  0  0  0  0  0
    3.2669    1.1063    0.4830 C   0  0  0  0  0  0  0  0  0  0  0  0
   -0.9175    3.6638   -0.4203 C   0  0  0  0  0  0  0  0  0  0  0  0
   -1.8118   -4.0509   -0.3825 F   0  0  0  0  0  0  0  0  0  0  0  0
    0.2786    0.5454    0.1924 C   0  0  2  0  0  0  0  0  0  0  0  0
    7.6773   -4.4924   -2.6006 N   0  0  0  0  0  0  0  0  0  0  0  0
    0.4239    4.0547   -0.2753 O   0  0  0  0  0  0  0  0  0  0  0  0
    0.8868    1.4535    1.2446 C   0  0  0  0  0  0  0  0  0  0  0  0
  1  5  2  0
  1 28  1  0
  2  8  1  0
  2 25  1  0
  2 28  2  0
  3 18  1  0
  3 27  1  0
  4 21  1  0
  4 23  2  3
  5  7  1  0
  6 16  1  0
  6 18  2  0
  7 13  1  0
  7 25  2  0
 30  8  1  6
  9 24  1  0
 10 16  1  0
 11 16  2  0
 11 19  1  0
 11 20  1  0
 12 32  1  0
 14 24  1  0
 15 27  1  0
 15 33  2  3
 17 18  1  0
 17 20  2  0
 19 31  3  0
 21 22  1  0
 21 24  1  0
 21 26  1  0
 23 30  1  0
 24 29  1  0
 28 32  1  0
 30 33  1  0
M  END
