
     RDKit          3D

 17 19  0  0  0  0  0  0  0  0999 V2000
   11.7324   -3.3503  -22.8555 C   0  0  0  0  0  0  0  0  0  0  0  0
   11.9881    0.8119  -18.5058 C   0  0  0  0  0  0  0  0  0  0  0  0
   11.7465    0.0530  -20.9014 C   0  0  0  0  0  0  0  0  0  0  0  0
   11.2805   -1.2547  -21.5020 C   0  0  0  0  0  0  0  0  0  0  0  0
   11.4686   -1.4660  -19.1399 N   0  0  0  0  0  0  0  0  0  0  0  0
   11.1415   -4.8226  -18.2052 C   0  0  0  0  0  0  0  0  0  0  0  0
   10.9335   -3.9154  -21.7711 N   0  0  0  0  0  0  0  0  0  0  0  0
   10.4850   -4.4067  -19.5175 C   0  0  2  0  0  0  0  0  0  0  0  0
   10.5510   -5.9313  -24.1530 O   0  0  0  0  0  0  0  0  0  0  0  0
   12.1702   -1.8937  -22.5618 C   0  0  0  0  0  0  0  0  0  0  0  0
    9.2760   -3.7050  -19.1965 O   0  0  0  0  0  0  0  0  0  0  0  0
   10.7294   -5.3655  -21.7755 C   0  0  1  0  0  0  0  0  0  0  0  0
   10.0980   -5.6180  -20.3925 C   0  0  0  0  0  0  0  0  0  0  0  0
   11.3711   -2.1060  -20.2659 C   0  0  0  0  0  0  0  0  0  0  0  0
    9.8385   -5.8819  -22.9165 C   0  0  0  0  0  0  0  0  0  0  0  0
   11.4760   -0.1332  -19.4741 N   0  0  0  0  0  0  0  0  0  0  0  0
   11.4259   -3.5982  -20.4212 C   0  0  2  0  0  0  0  0  0  0  0  0
  1  7  1  0
  1 10  1  0
  2 16  1  0
  3  4  1  0
  3 16  1  0
  4 10  1  0
  4 14  1  0
  5 14  2  0
  5 16  1  0
  8  6  1  1
  7 12  1  0
  7 17  1  0
  8 11  1  0
  8 13  1  0
  8 17  1  0
  9 15  1  0
 12 13  1  0
 12 15  1  1
 17 14  1  1
M  END
$$$$
