
     RDKit          3D

 12 14  0  0  0  0  0  0  0  0999 V2000
   27.8387   15.0633   21.0978 C   0  0  0  0  0  0  0  0  0  0  0  0
   26.8280   13.7855   19.2352 C   0  0  0  0  0  0  0  0  0  0  0  0
   25.9302   13.9812   20.1169 C   0  0  0  0  0  0  0  0  0  0  0  0
   24.7159   13.0962   18.0624 O   0  0  0  0  0  0  0  0  0  0  0  0
   29.6070   15.5289   21.0120 O   0  0  0  0  0  0  0  0  0  0  0  0
   24.6146   14.2962   20.1423 C   0  0  0  0  0  0  0  0  0  0  0  0
   23.2723   14.0185   20.5442 O   0  0  0  0  0  0  0  0  0  0  0  0
   27.2493   15.2594   22.1851 O   0  0  0  0  0  0  0  0  0  0  0  0
   29.3935   14.7284   19.3295 O   0  0  0  0  0  0  0  0  0  0  0  0
   28.9216   14.9245   20.3869 C   0  0  0  0  0  0  0  0  0  0  0  0
   27.1070   14.4233   20.1383 C   0  0  0  0  0  0  0  0  0  0  0  0
   25.2530   13.5394   18.9922 C   0  0  0  0  0  0  0  0  0  0  0  0
  1  8  2  0
  1 10  1  0
  1 11  1  0
  2  3  1  0
  2 11  1  0
  2 12  1  0
  3  6  1  0
  3 11  2  0
  3 12  1  0
  4 12  2  0
  5 10  1  0
  6  7  1  0
  6 12  1  0
  9 10  2  0
M  END
$$$$
