
     RDKit          3D

 17 17  0  0  0  0  0  0  0  0999 V2000
   13.1337   -1.8155   32.1003 P   0  0  0  0  0  0  0  0  0  0  0  0
   14.0634    2.3712   33.3003 C   0  0  0  0  0  0  0  0  0  0  0  0
   12.6028   -3.3179   32.1490 O   0  0  0  0  0  0  0  0  0  0  0  0
   11.9787    2.4282   34.2869 N   0  0  0  0  0  0  0  0  0  0  0  0
   10.4025    0.6307   31.5459 C   0  0  0  0  0  0  0  0  0  0  0  0
   10.7655   -0.8489   31.6719 C   0  0  0  0  0  0  0  0  0  0  0  0
   13.2921    1.8522   28.8039 C   0  0  0  0  0  0  0  0  0  0  0  0
   14.5289    0.6884   30.8826 O   0  0  0  0  0  0  0  0  0  0  0  0
   12.0769   -1.0549   31.1731 O   0  0  0  0  0  0  0  0  0  0  0  0
   13.2289    2.6969   34.4377 C   0  0  0  0  0  0  0  0  0  0  0  0
   12.9350    2.1778   30.1485 O   0  0  0  0  0  0  0  0  0  0  0  0
   13.1889    1.8846   32.4155 C   0  0  0  0  0  0  0  0  0  0  0  0
   10.7183    1.3588   32.7638 N   0  0  0  0  0  0  0  0  0  0  0  0
   14.3924   -1.9426   31.1268 O   0  0  0  0  0  0  0  0  0  0  0  0
   11.8596    1.8324   33.0513 C   0  0  0  0  0  0  0  0  0  0  0  0
   13.6221    1.4881   31.0872 C   0  0  0  0  0  0  0  0  0  0  0  0
   13.4437   -1.1985   33.4183 O   0  0  0  0  0  0  0  0  0  0  0  0
  1  3  1  0
  1  9  1  0
  1 14  1  0
  1 17  2  0
  2 10  1  0
  2 12  2  0
  4 10  2  0
  4 15  1  0
  5  6  1  0
  5 13  1  0
  6  9  1  0
  7 11  1  0
  8 16  2  0
 11 16  1  0
 12 15  1  0
 12 16  1  0
 13 15  2  3
M  END
$$$$
