
     RDKit          3D

 23 25  0  0  0  0  0  0  0  0999 V2000
    8.5696   23.0169   28.9179 C   0  0  0  0  0  0  0  0  0  0  0  0
    9.1552   24.8404   30.3745 C   0  0  0  0  0  0  0  0  0  0  0  0
    5.6097   25.9682   24.5683 C   0  0  0  0  0  0  0  0  0  0  0  0
   12.1995   23.8194   28.6987 O   0  0  0  0  0  0  0  0  0  0  0  0
    4.6514   27.3766   26.3351 N   0  0  0  0  0  0  0  0  0  0  0  0
    4.6892   25.4047   29.2060 O   0  0  0  0  0  0  0  0  0  0  0  0
    4.7204   26.1151   22.3655 N   0  0  0  0  0  0  0  0  0  0  0  0
    4.7203   26.5246   23.6345 C   0  0  0  0  0  0  0  0  0  0  0  0
    7.1162   24.8880   25.6833 C   0  0  0  0  0  0  0  0  0  0  0  0
    5.9060   24.8097   28.7724 C   0  0  0  0  0  0  0  0  0  0  0  0
    8.1890   24.4030   29.3233 C   0  0  0  0  0  0  0  0  0  0  0  0
    6.4894   25.6936   26.5875 N   0  0  0  0  0  0  0  0  0  0  0  0
    6.8103   24.4234   29.9330 C   0  0  0  0  0  0  0  0  0  0  0  0
    3.8474   27.8668   25.3365 C   0  0  0  0  0  0  0  0  0  0  0  0
    8.1825   25.4373   28.1987 O   0  0  0  0  0  0  0  0  0  0  0  0
   11.0865   23.2517   27.8106 P   0  0  0  0  0  0  0  0  0  0  0  0
    6.6002   25.0033   24.4510 N   0  0  0  0  0  0  0  0  0  0  0  0
   11.5606   21.8860   27.1291 O   0  0  0  0  0  0  0  0  0  0  0  0
    3.8337   27.5003   24.0255 N   0  0  0  0  0  0  0  0  0  0  0  0
    5.5544   26.4133   25.8855 C   0  0  0  0  0  0  0  0  0  0  0  0
    6.7889   25.8009   27.9900 C   0  0  0  0  0  0  0  0  0  0  0  0
   10.5062   24.1526   26.6886 O   0  0  0  0  0  0  0  0  0  0  0  0
    9.8896   22.7759   28.9759 O   0  0  0  0  0  0  0  0  0  0  0  0
  1 11  1  0
  1 23  1  0
  2 11  1  0
  3  8  2  0
  3 17  1  0
  3 20  1  0
  4 16  1  0
  5 14  1  0
  5 20  2  0
  6 10  1  0
  7  8  1  0
  8 19  1  0
  9 12  1  0
  9 17  2  0
 10 13  1  0
 10 21  1  0
 11 13  1  0
 11 15  1  0
 12 20  1  0
 12 21  1  0
 14 19  2  0
 15 21  1  0
 16 18  1  0
 16 22  2  0
 16 23  1  0
M  END
$$$$
