
     RDKit          3D

 23 25  0  0  0  0  0  0  0  0999 V2000
    6.3182   25.8617   24.2646 C   0  0  0  0  0  0  0  0  0  0  0  0
   10.6389   22.9445   26.7419 O   0  0  0  0  0  0  0  0  0  0  0  0
   10.5672   22.7655   28.1839 P   0  0  0  0  0  0  0  0  0  0  0  0
    5.6734   26.3044   23.1836 C   0  0  0  0  0  0  0  0  0  0  0  0
    7.1310   24.7985   24.4629 N   0  0  0  0  0  0  0  0  0  0  0  0
    6.9286   25.8429   26.3012 N   0  0  0  0  0  0  0  0  0  0  0  0
    6.2447   24.3055   29.0804 C   0  0  0  0  0  0  0  0  0  0  0  0
    5.7023   25.5118   28.3897 C   0  0  0  0  0  0  0  0  0  0  0  0
    6.1703   26.4809   25.4340 C   0  0  0  0  0  0  0  0  0  0  0  0
   11.0518   21.4685   28.5067 O   0  0  0  0  0  0  0  0  0  0  0  0
    5.3655   27.5585   25.5519 N   0  0  0  0  0  0  0  0  0  0  0  0
    8.0379   25.5883   28.5207 O   0  0  0  0  0  0  0  0  0  0  0  0
    9.0522   22.8866   28.5244 O   0  0  0  0  0  0  0  0  0  0  0  0
    5.1449   26.3967   29.3408 O   0  0  0  0  0  0  0  0  0  0  0  0
    7.6145   24.6702   29.4691 C   0  0  0  0  0  0  0  0  0  0  0  0
    5.8839   25.6394   22.0924 N   0  0  0  0  0  0  0  0  0  0  0  0
    7.5205   24.8019   25.7434 C   0  0  0  0  0  0  0  0  0  0  0  0
    8.6469   23.5981   29.6954 C   0  0  0  0  0  0  0  0  0  0  0  0
    5.4254   23.9572   30.1658 O   0  0  0  0  0  0  0  0  0  0  0  0
    4.7728   28.0488   24.4351 C   0  0  0  0  0  0  0  0  0  0  0  0
   11.4677   23.7484   28.7708 O   0  0  0  0  0  0  0  0  0  0  0  0
    4.9022   27.3957   23.2601 N   0  0  0  0  0  0  0  0  0  0  0  0
    6.9402   26.0943   27.7517 C   0  0  0  0  0  0  0  0  0  0  0  0
  1  4  2  0
  1  5  1  0
  1  9  1  0
  2  3  1  0
  3 10  2  0
  3 13  1  0
  3 21  1  0
  4 16  1  0
  4 22  1  0
  5 17  2  0
  6  9  1  0
  6 17  1  0
  6 23  1  0
  7  8  1  0
  7 15  1  0
  7 19  1  0
  8 14  1  0
  8 23  1  0
  9 11  2  0
 11 20  1  0
 12 15  1  0
 12 23  1  0
 13 18  1  0
 15 18  1  0
 20 22  2  0
M  END
$$$$
