
     RDKit          3D

 24 27  0  0  0  0  0  0  0  0999 V2000
    9.8431   23.6615   28.7239 O   0  0  0  0  0  0  0  0  0  0  0  0
   11.7363   23.9684   27.7707 O   0  0  0  0  0  0  0  0  0  0  0  0
    8.1873   22.0355   28.9425 O   0  0  0  0  0  0  0  0  0  0  0  0
   11.1582   22.9502   28.7778 P   0  0  0  0  0  0  0  0  0  0  0  0
    5.1999   27.2304   26.0660 N   0  0  0  0  0  0  0  0  0  0  0  0
    6.6111   25.6017   27.8908 C   0  0  0  0  0  0  0  0  0  0  0  0
    5.6258   26.3410   23.0322 C   0  0  0  0  0  0  0  0  0  0  0  0
    6.3317   23.8348   29.3190 C   0  0  0  0  0  0  0  0  0  0  0  0
    7.2228   24.6746   25.5549 C   0  0  0  0  0  0  0  0  0  0  0  0
    5.6196   25.9844   21.9353 N   0  0  0  0  0  0  0  0  0  0  0  0
    7.7881   24.3767   29.3347 C   0  0  0  0  0  0  0  0  0  0  0  0
    7.0012   24.8885   24.2624 N   0  0  0  0  0  0  0  0  0  0  0  0
    5.6895   23.8787   30.5574 O   0  0  0  0  0  0  0  0  0  0  0  0
    7.9412   25.2099   28.2067 O   0  0  0  0  0  0  0  0  0  0  0  0
    4.8660   27.5758   23.7666 C   0  0  0  0  0  0  0  0  0  0  0  0
    5.0692   27.5567   23.5645 N   0  0  0  0  0  0  0  0  0  0  0  0
   11.1932   21.5743   28.3562 O   0  0  0  0  0  0  0  0  0  0  0  0
    5.9833   26.3213   25.5158 C   0  0  0  0  0  0  0  0  0  0  0  0
    6.6483   25.4727   26.2824 N   0  0  0  0  0  0  0  0  0  0  0  0
    6.2130   25.9432   24.2415 C   0  0  0  0  0  0  0  0  0  0  0  0
    8.7083   23.3073   29.3902 C   0  0  0  0  0  0  0  0  0  0  0  0
    5.5423   24.7147   28.4124 C   0  0  0  0  0  0  0  0  0  0  0  0
    4.5853   28.0496   25.1014 C   0  0  0  0  0  0  0  0  0  0  0  0
   11.6272   22.9401   30.3185 O   0  0  0  0  0  0  0  0  0  0  0  0
  1  4  1  0
  1 21  1  0
  2  4  1  0
  3 21  1  0
  4 17  2  0
  4 24  1  0
  5 18  2  0
  5 23  1  0
  6 14  1  0
  6 19  1  0
  6 22  1  0
  7 10  1  0
  7 16  1  0
  7 20  2  0
  8 11  1  0
  8 13  1  0
  8 22  1  0
  9 12  2  0
  9 19  1  0
 11 14  1  0
 11 21  1  0
 12 20  1  0
 15 16  1  0
 15 23  2  0
 16 23  1  0
 18 19  1  0
 18 20  1  0
M  END
$$$$
