
     RDKit          3D

 16 17  0  0  0  0  0  0  0  0999 V2000
    4.4913   -0.5024    0.9821 C   0  0  0  0  0  0  0  0  0  0  0  0
   -2.1695   -0.7842   -0.3833 C   0  0  0  0  0  0  0  0  0  0  0  0
   -3.7070   -0.8664   -0.4788 C   0  0  0  0  0  0  0  0  0  0  0  0
   -1.6525    0.5785    0.1429 C   0  0  0  0  0  0  0  0  0  0  0  0
    0.8475    0.1233    0.0851 C   0  0  0  0  0  0  0  0  0  0  0  0
   -2.6711    1.2215    1.1009 C   0  0  0  0  0  0  0  0  0  0  0  0
    3.4536   -0.4807   -1.1674 N   0  0  0  0  0  0  0  0  0  0  0  0
    2.0801   -0.0562    0.8020 N   0  0  0  0  0  0  0  0  0  0  0  0
   -4.3334    0.5071   -0.7370 C   0  0  0  0  0  0  0  0  0  0  0  0
   -4.0167    1.4995    0.3997 C   0  0  0  0  0  0  0  0  0  0  0  0
    0.8181    0.0379   -1.1728 O   0  0  0  0  0  0  0  0  0  0  0  0
    4.6385   -0.7574   -1.7745 C   0  0  0  0  0  0  0  0  0  0  0  0
   -0.3576    0.4067    0.8105 N   0  0  0  0  0  0  0  0  0  0  0  0
    5.7954   -0.9158   -1.0095 C   0  0  0  0  0  0  0  0  0  0  0  0
    3.3467   -0.3487    0.1855 C   0  0  0  0  0  0  0  0  0  0  0  0
    5.7178   -0.7868    0.3778 C   0  0  0  0  0  0  0  0  0  0  0  0
  1 15  2  0
  1 16  1  0
  2  3  1  0
  2  4  1  0
  3  9  1  0
  4  6  1  0
  4 13  1  0
  5  8  1  0
  5 11  2  0
  5 13  1  0
  6 10  1  0
  7 12  2  0
  7 15  1  0
  8 15  1  0
  9 10  1  0
 12 14  1  0
 14 16  2  0
M  END
