
     RDKit          3D

 16 17  0  0  0  0  0  0  0  0999 V2000
    3.8459   -1.4000    0.9977 C   0  0  0  0  0  0  0  0  0  0  0  0
   -3.8212   -1.1790   -0.7759 N   0  0  0  0  0  0  0  0  0  0  0  0
    0.6613    0.5979    0.5193 C   0  0  0  0  0  0  0  0  0  0  0  0
   -3.0121    0.5367    1.2312 C   0  0  0  0  0  0  0  0  0  0  0  0
   -0.1344    1.0949   -0.5699 N   0  0  0  0  0  0  0  0  0  0  0  0
    0.1928    0.6144    1.6907 O   0  0  0  0  0  0  0  0  0  0  0  0
    4.0737   -0.0749   -1.0122 C   0  0  0  0  0  0  0  0  0  0  0  0
   -1.4404    1.7165   -0.3619 C   0  0  0  0  0  0  0  0  0  0  0  0
   -3.9569   -0.4567    1.4954 C   0  0  0  0  0  0  0  0  0  0  0  0
    4.5985   -1.0013   -0.1087 C   0  0  0  0  0  0  0  0  0  0  0  0
    2.7928    0.4510   -0.8154 C   0  0  0  0  0  0  0  0  0  0  0  0
    2.5651   -0.8768    1.2003 C   0  0  0  0  0  0  0  0  0  0  0  0
   -2.8997   -0.2194   -1.0583 C   0  0  0  0  0  0  0  0  0  0  0  0
   -2.4747    0.6676   -0.0578 C   0  0  0  0  0  0  0  0  0  0  0  0
    2.0192    0.0479    0.2901 C   0  0  0  0  0  0  0  0  0  0  0  0
   -4.3540   -1.3140    0.4675 C   0  0  0  0  0  0  0  0  0  0  0  0
  1 10  2  0
  1 12  1  0
  2 13  2  0
  2 16  1  0
  3  5  1  0
  3  6  2  0
  3 15  1  0
  4  9  1  0
  4 14  2  0
  5  8  1  0
  7 10  1  0
  7 11  2  0
  8 14  1  0
  9 16  2  0
 11 15  1  0
 12 15  2  0
 13 14  1  0
M  END
