
     RDKit          3D

 10 10  0  0  0  0  0  0  0  0999 V2000
    3.8243    1.0133   -0.1745 C   0  0  0  0  0  0  0  0  0  0  0  0
    1.0547    0.8909   -0.7516 C   0  0  0  0  0  0  0  0  0  0  0  0
    0.2618   -0.0111   -1.3291 C   0  0  0  0  0  0  0  0  0  0  0  0
    3.6648   -0.2110   -0.7888 C   0  0  0  0  0  0  0  0  0  0  0  0
   -1.9137    0.2186   -0.1633 C   0  0  0  0  0  0  0  0  0  0  0  0
   -2.7315   -0.9076    1.8851 C   0  0  0  0  0  0  0  0  0  0  0  0
   -1.2109    0.2274   -1.4926 C   0  0  0  0  0  0  0  0  0  0  0  0
    2.4484    0.6363   -0.6127 N   0  0  0  0  0  0  0  0  0  0  0  0
   -2.0354   -0.9060    0.5575 C   0  0  0  0  0  0  0  0  0  0  0  0
   -4.0824   -0.5834    1.7106 O   0  0  0  0  0  0  0  0  0  0  0  0
  1  4  1  0
  1  8  1  0
  2  3  2  3
  2  8  1  0
  3  7  1  0
  4  8  1  0
  5  7  1  0
  5  9  2  3
  6  9  1  0
  6 10  1  0
M  END
