
     RDKit          3D

 11 10  0  0  0  0  0  0  0  0999 V2000
    2.8104   -0.2886    0.9175 C   0  0  0  0  0  0  0  0  0  0  0  0
   -1.3583   -1.2684   -0.4135 N   0  0  0  0  0  0  0  0  0  0  0  0
    0.0912   -1.0703   -0.4801 C   0  0  0  0  0  0  0  0  0  0  0  0
   -3.2098    0.9676    0.2727 C   0  0  0  0  0  0  0  0  0  0  0  0
   -1.9734   -0.4078   -1.3497 N   0  0  0  0  0  0  0  0  0  0  0  0
   -4.4972    1.3372    0.6804 O   0  0  0  0  0  0  0  0  0  0  0  0
    0.4858    0.2383    0.2148 C   0  0  0  0  0  0  0  0  0  0  0  0
    1.9740    0.4507    0.1740 C   0  0  0  0  0  0  0  0  0  0  0  0
    4.7876   -0.3361   -0.3905 O   0  0  0  0  0  0  0  0  0  0  0  0
   -3.3068   -0.0583   -0.8552 C   0  0  0  0  0  0  0  0  0  0  0  0
    4.2908   -0.0544    0.8879 C   0  0  0  0  0  0  0  0  0  0  0  0
  1  8  2  3
  1 11  1  0
  2  3  1  0
  2  5  1  0
  3  7  1  0
  4  6  1  0
  4 10  1  0
  5 10  1  0
  7  8  1  0
  9 11  1  0
M  END
