
     RDKit          3D

 27 31  0  0  0  0  0  0  0  0999 V2000
   -4.3340   31.1608   -2.1554 C   0  0  0  0  0  0  0  0  0  0  0  0
  -10.4069   32.5963   -0.7468 C   0  0  0  0  0  0  0  0  0  0  0  0
   -8.9318   29.0521   -4.1080 C   0  0  0  0  0  0  0  0  0  0  0  0
   -6.5282   30.9514   -3.0326 N   0  0  0  0  0  0  0  0  0  0  0  0
   -9.5110   28.8873   -5.5100 C   0  0  0  0  0  0  0  0  0  0  0  0
   -5.5843   29.9766   -3.7520 C   0  0  0  0  0  0  0  0  0  0  0  0
  -10.0640   30.7542   -2.4926 N   0  0  0  0  0  0  0  0  0  0  0  0
   -9.6945   31.7516   -1.6242 N   0  0  0  0  0  0  0  0  0  0  0  0
   -5.7808   28.8243   -5.5023 O   0  0  0  0  0  0  0  0  0  0  0  0
  -10.0385   33.9503   -0.6916 C   0  0  0  0  0  0  0  0  0  0  0  0
   -9.0060   30.2321   -3.1831 C   0  0  0  0  0  0  0  0  0  0  0  0
   -4.3169   30.2445   -3.2845 C   0  0  0  0  0  0  0  0  0  0  0  0
  -11.4239   32.2177    0.1758 C   0  0  0  0  0  0  0  0  0  0  0  0
  -12.0737   33.0840    1.0435 C   0  0  0  0  0  0  0  0  0  0  0  0
  -10.6674   34.8108    0.1769 C   0  0  0  0  0  0  0  0  0  0  0  0
   -7.9223   30.8849   -2.7335 C   0  0  0  0  0  0  0  0  0  0  0  0
  -11.6529   34.3946    1.0593 C   0  0  0  0  0  0  0  0  0  0  0  0
   -6.3137   29.1018   -5.0158 C   0  0  0  0  0  0  0  0  0  0  0  0
   -8.3902   31.7602   -1.8502 N   0  0  0  0  0  0  0  0  0  0  0  0
   -7.7423   29.1088   -4.9344 N   0  0  0  0  0  0  0  0  0  0  0  0
   -1.8224   29.9919   -2.9935 N   0  0  0  0  0  0  0  0  0  0  0  0
   -8.2408   28.3482   -6.1006 C   0  0  0  0  0  0  0  0  0  0  0  0
   -7.0761   26.7456   -7.7586 C   0  0  0  0  0  0  0  0  0  0  0  0
   -7.8866   26.9240   -6.5199 C   0  0  0  0  0  0  0  0  0  0  0  0
   -5.6779   31.8290   -2.2137 C   0  0  0  0  0  0  0  0  0  0  0  0
   -2.9474   28.6093   -4.2876 O   0  0  0  0  0  0  0  0  0  0  0  0
   -3.0218   29.5636   -3.5514 C   0  0  0  0  0  0  0  0  0  0  0  0
  1 12  1  0
  1 25  1  0
  2  8  1  0
  2 10  1  0
  2 13  2  0
  3  5  1  0
  3 11  1  0
  3 20  1  0
  4  6  1  0
  4 16  1  0
  4 25  1  0
  5 22  1  0
  6 12  2  0
  6 18  1  0
  7  8  1  0
  7 11  2  0
  8 19  1  0
  9 18  2  0
 10 15  2  0
 11 16  1  0
 12 27  1  0
 13 14  1  0
 14 17  2  0
 15 17  1  0
 16 19  2  0
 18 20  1  0
 20 22  1  0
 21 27  1  0
 22 24  1  0
 23 24  1  0
 26 27  2  0
M  END
$$$$
