
     RDKit          3D

 29 34  0  0  0  0  0  0  0  0999 V2000
   -7.7057   29.0150   -4.6417 C   0  0  0  0  0  0  0  0  0  0  0  0
   -5.5518   31.4041   -1.8786 C   0  0  0  0  0  0  0  0  0  0  0  0
  -11.8557   34.1577    1.7610 O   0  0  0  0  0  0  0  0  0  0  0  0
   -7.2566   30.0217   -3.6636 N   0  0  0  0  0  0  0  0  0  0  0  0
  -10.2187   34.1770   -0.5078 C   0  0  0  0  0  0  0  0  0  0  0  0
   -6.4621   28.6159   -5.4408 C   0  0  0  0  0  0  0  0  0  0  0  0
   -3.9107   29.0655   -4.8182 C   0  0  0  0  0  0  0  0  0  0  0  0
   -9.3697   30.4318   -2.5181 S   0  0  0  0  0  0  0  0  0  0  0  0
   -5.3123   29.1361   -4.6578 C   0  0  0  0  0  0  0  0  0  0  0  0
   -7.6183   30.6755   -2.6702 C   0  0  0  0  0  0  0  0  0  0  0  0
   -5.0237   30.5994   -2.8758 C   0  0  0  0  0  0  0  0  0  0  0  0
   -6.8651   27.1676   -5.6833 C   0  0  0  0  0  0  0  0  0  0  0  0
   -3.0733   29.7887   -3.8841 C   0  0  0  0  0  0  0  0  0  0  0  0
   -6.9112   31.3641   -1.7606 N   0  0  0  0  0  0  0  0  0  0  0  0
   -8.1557   27.0686   -6.3270 N   0  0  0  0  0  0  0  0  0  0  0  0
  -11.8287   32.9239    1.0110 C   0  0  0  0  0  0  0  0  0  0  0  0
   -9.3005   34.1344   -1.5062 C   0  0  0  0  0  0  0  0  0  0  0  0
  -13.2029   32.7930    0.4331 C   0  0  0  0  0  0  0  0  0  0  0  0
  -10.5588   31.8500   -0.7170 N   0  0  0  0  0  0  0  0  0  0  0  0
   -4.3152   31.7910   -1.3135 C   0  0  0  0  0  0  0  0  0  0  0  0
   -3.2140   31.3267   -1.9479 N   0  0  0  0  0  0  0  0  0  0  0  0
   -3.6797   30.5878   -2.9590 N   0  0  0  0  0  0  0  0  0  0  0  0
   -9.6936   31.8803   -1.6734 C   0  0  0  0  0  0  0  0  0  0  0  0
  -10.8243   32.9935   -0.1313 C   0  0  0  0  0  0  0  0  0  0  0  0
   -8.5593   28.3536   -6.8330 C   0  0  0  0  0  0  0  0  0  0  0  0
   -8.4781   29.6112   -5.8809 C   0  0  0  0  0  0  0  0  0  0  0  0
   -7.0526   26.5245   -4.3664 C   0  0  0  0  0  0  0  0  0  0  0  0
   -9.0510   32.9676   -2.0957 N   0  0  0  0  0  0  0  0  0  0  0  0
   -5.8104   29.8834   -3.6131 C   0  0  0  0  0  0  0  0  0  0  0  0
  1  4  1  0
  1  6  1  0
  1 26  1  0
  2 11  2  0
  2 14  1  0
  2 20  1  0
  3 16  1  0
  4 10  1  0
  4 29  1  0
  5 17  2  0
  5 24  1  0
  6  9  1  0
  6 12  1  0
  7  9  1  0
  7 13  2  0
  8 10  1  0
  8 23  1  0
  9 29  2  0
 10 14  2  0
 11 22  1  0
 11 29  1  0
 12 15  1  0
 12 27  1  0
 13 22  1  0
 15 25  1  0
 16 18  1  0
 16 24  1  0
 17 28  1  0
 19 23  1  0
 19 24  2  0
 20 21  2  0
 21 22  1  0
 23 28  2  0
 25 26  1  0
M  END
$$$$
