
     RDKit          3D

 22 23  0  0  0  0  0  0  0  0999 V2000
  -10.5899   32.8725   -1.2766 C   0  0  0  0  0  0  0  0  0  0  0  0
   -7.6552   31.2223   -2.1721 C   0  0  0  0  0  0  0  0  0  0  0  0
  -13.2466   34.2149    0.5187 C   0  0  0  0  0  0  0  0  0  0  0  0
   -4.6899   27.5409   -6.3193 N   0  0  0  0  0  0  0  0  0  0  0  0
   -8.9129   29.8718   -4.1838 C   0  0  0  0  0  0  0  0  0  0  0  0
   -3.1015   30.3344   -3.7692 C   0  0  0  0  0  0  0  0  0  0  0  0
   -5.3477   30.8568   -2.9279 C   0  0  0  0  0  0  0  0  0  0  0  0
   -4.5463   30.2692   -3.8013 N   0  0  0  0  0  0  0  0  0  0  0  0
  -12.0699   34.5726   -0.2400 C   0  0  0  0  0  0  0  0  0  0  0  0
   -9.0440   31.1389   -2.2181 C   0  0  0  0  0  0  0  0  0  0  0  0
   -5.7251   27.7552   -5.8666 C   0  0  0  0  0  0  0  0  0  0  0  0
   -9.6622   30.4414   -3.2278 C   0  0  0  0  0  0  0  0  0  0  0  0
  -10.9619   32.7938    1.0516 C   0  0  0  0  0  0  0  0  0  0  0  0
   -6.7857   29.4667   -5.0287 O   0  0  0  0  0  0  0  0  0  0  0  0
   -9.5656   31.2102    0.0631 C   0  0  0  0  0  0  0  0  0  0  0  0
   -6.8474   30.6601   -3.0934 C   0  0  0  0  0  0  0  0  0  0  0  0
  -11.1761   33.3889   -0.1274 C   0  0  0  0  0  0  0  0  0  0  0  0
   -7.5364   29.9730   -4.0777 C   0  0  0  0  0  0  0  0  0  0  0  0
   -4.9050   31.5796   -2.0013 O   0  0  0  0  0  0  0  0  0  0  0  0
   -9.7572   31.7119   -1.2064 C   0  0  0  0  0  0  0  0  0  0  0  0
  -10.1548   31.7038    1.1558 N   0  0  0  0  0  0  0  0  0  0  0  0
   -7.1065   28.0922   -5.3412 C   0  0  0  0  0  0  0  0  0  0  0  0
  1 17  2  0
  1 20  1  0
  2 10  2  0
  2 16  1  0
  3  9  1  0
  4 11  3  0
  5 12  2  0
  5 18  1  0
  6  8  1  0
  7  8  1  0
  7 16  1  0
  7 19  2  0
  9 17  1  0
 10 12  1  0
 10 20  1  0
 11 22  1  0
 13 17  1  0
 13 21  2  0
 14 18  1  0
 14 22  1  0
 15 20  2  0
 15 21  1  0
 16 18  2  0
M  END
$$$$
