
     RDKit          3D

 32 37  0  0  0  0  0  0  0  0999 V2000
   -8.9826   31.9483   -1.8823 C   0  0  0  0  0  0  0  0  0  0  0  0
   -6.6378   31.4926   -2.3156 N   0  0  0  0  0  0  0  0  0  0  0  0
  -12.8952   32.6512    1.3397 N   0  0  0  0  0  0  0  0  0  0  0  0
  -10.3350   28.7229   -5.4941 C   0  0  0  0  0  0  0  0  0  0  0  0
   -9.8150   30.1117   -5.8873 C   0  0  0  0  0  0  0  0  0  0  0  0
  -10.9658   31.2876   -4.2558 O   0  0  0  0  0  0  0  0  0  0  0  0
   -6.6497   26.8020   -7.3164 N   0  0  0  0  0  0  0  0  0  0  0  0
   -4.3885   28.5340   -5.1326 N   0  0  0  0  0  0  0  0  0  0  0  0
   -8.4687   28.0627   -4.1589 C   0  0  0  0  0  0  0  0  0  0  0  0
   -6.2316   27.5160   -6.5359 C   0  0  0  0  0  0  0  0  0  0  0  0
   -9.9914   31.4076   -5.2632 C   0  0  0  0  0  0  0  0  0  0  0  0
   -3.2431   30.5955   -2.3320 N   0  0  0  0  0  0  0  0  0  0  0  0
   -4.3960   31.1100   -2.0336 C   0  0  0  0  0  0  0  0  0  0  0  0
  -10.9309   32.9009   -0.1233 C   0  0  0  0  0  0  0  0  0  0  0  0
  -11.9244   34.6159    1.0373 O   0  0  0  0  0  0  0  0  0  0  0  0
   -9.7007   28.2704   -4.1937 C   0  0  0  0  0  0  0  0  0  0  0  0
   -6.3885   29.3300   -4.7264 N   0  0  0  0  0  0  0  0  0  0  0  0
   -5.5342   29.9085   -3.7826 C   0  0  0  0  0  0  0  0  0  0  0  0
  -11.9388   33.4293    0.7913 C   0  0  0  0  0  0  0  0  0  0  0  0
   -8.8559   33.2298   -1.3526 C   0  0  0  0  0  0  0  0  0  0  0  0
   -9.8440   33.7039   -0.4656 C   0  0  0  0  0  0  0  0  0  0  0  0
  -11.0010   31.5903   -0.6629 C   0  0  0  0  0  0  0  0  0  0  0  0
   -3.1642   29.7588   -3.3490 C   0  0  0  0  0  0  0  0  0  0  0  0
   -5.5531   30.8182   -2.7276 C   0  0  0  0  0  0  0  0  0  0  0  0
   -8.3868   30.5054   -3.1884 N   0  0  0  0  0  0  0  0  0  0  0  0
   -8.7169   30.5697   -4.9775 C   0  0  0  0  0  0  0  0  0  0  0  0
   -5.6633   28.4545   -5.4665 C   0  0  0  0  0  0  0  0  0  0  0  0
   -7.7908   31.4309   -2.6281 C   0  0  0  0  0  0  0  0  0  0  0  0
   -7.8486   29.3093   -4.7216 C   0  0  0  0  0  0  0  0  0  0  0  0
  -10.0173   31.1105   -1.4978 C   0  0  0  0  0  0  0  0  0  0  0  0
   -4.3111   32.0782   -0.7158 Cl  0  0  0  0  0  0  0  0  0  0  0  0
   -4.2292   29.3573   -4.1126 C   0  0  0  0  0  0  0  0  0  0  0  0
  1 20  1  0
  1 28  1  0
  1 30  2  0
  2 24  1  0
  2 28  2  3
  3 19  1  0
  4  5  1  0
  4 16  1  0
  5 11  1  0
  5 26  1  0
  6 11  1  0
  7 10  3  0
  8 27  2  0
  8 32  1  0
  9 16  1  0
  9 29  1  0
 10 27  1  0
 11 26  1  0
 12 13  1  0
 12 23  2  0
 13 24  2  0
 13 31  1  0
 14 19  1  0
 14 21  1  0
 14 22  2  0
 15 19  2  0
 17 18  1  0
 17 27  1  0
 17 29  1  0
 18 24  1  0
 18 32  2  0
 20 21  2  0
 22 30  1  0
 23 32  1  0
 25 26  1  0
 25 28  1  0
 26 29  1  0
M  END
$$$$
