
     RDKit          3D

 15 15  0  0  0  0  0  0  0  0999 V2000
   -2.8931    0.5337   -0.8352 C   0  0  0  0  0  0  0  0  0  0  0  0
   -2.9811    1.6599   -1.6656 O   0  0  0  0  0  0  0  0  0  0  0  0
   -1.2820   -1.3042   -0.0116 C   0  0  1  0  0  0  0  0  0  0  0  0
   -2.2424   -1.4766    1.0073 O   0  0  0  0  0  0  0  0  0  0  0  0
    1.6776    0.2187   -0.5620 O   0  0  0  0  0  0  0  0  0  0  0  0
    3.5305    1.3273    1.2055 O   0  0  0  0  0  0  0  0  0  0  0  0
   -1.4345    0.0424   -0.7343 C   0  0  2  0  0  0  0  0  0  0  0  0
    3.2343    0.0568    0.1237 P   0  0  0  0  0  0  0  0  0  0  0  0
   -0.1232    2.0810   -0.7539 O   0  0  0  0  0  0  0  0  0  0  0  0
   -0.5207    0.9910    0.0400 C   0  0  2  0  0  0  0  0  0  0  0  0
    0.6860    0.1356    0.4477 C   0  0  1  0  0  0  0  0  0  0  0  0
    3.3628   -1.2721    0.8356 O   0  0  0  0  0  0  0  0  0  0  0  0
    4.3823    0.1263   -1.1166 O   0  0  0  0  0  0  0  0  0  0  0  0
    0.1822   -1.7693    1.8740 O   0  0  0  0  0  0  0  0  0  0  0  0
    0.1573   -1.3137    0.5442 C   0  0  1  0  0  0  0  0  0  0  0  0
  1  2  1  0
  7  1  1  1
  3  4  1  1
  3  7  1  0
  3 15  1  0
  5  8  1  0
 11  5  1  6
  6  8  1  0
  7 10  1  0
  8 12  2  0
  8 13  1  0
 10  9  1  6
 10 11  1  0
 11 15  1  0
 15 14  1  1
M  END
