
     RDKit          3D

 18 21  0  0  0  0  0  0  0  0999 V2000
  -18.8479   15.6310  -29.9126 N   0  0  0  0  0  0  0  0  0  0  0  0
  -20.1301   15.9099  -29.7298 C   0  0  0  0  0  0  0  0  0  0  0  0
  -22.9964   16.1106  -28.8010 C   0  0  0  0  0  0  0  0  0  0  0  0
  -20.4977   16.2711  -28.3291 C   0  0  0  0  0  0  0  0  0  0  0  0
  -24.3088   16.1049  -28.2965 C   0  0  0  0  0  0  0  0  0  0  0  0
  -16.9931   15.7803  -28.2462 C   0  0  0  0  0  0  0  0  0  0  0  0
  -18.3255   15.8723  -28.6364 N   0  0  0  0  0  0  0  0  0  0  0  0
  -23.6828   15.1274  -30.8792 C   0  0  0  0  0  0  0  0  0  0  0  0
  -18.0182   18.6186  -25.0809 N   0  0  0  0  0  0  0  0  0  0  0  0
  -18.9109   17.3657  -25.1609 C   0  0  0  0  0  0  0  0  0  0  0  0
  -25.2798   15.6125  -29.1883 C   0  0  0  0  0  0  0  0  0  0  0  0
  -19.2662   16.2767  -27.6533 C   0  0  0  0  0  0  0  0  0  0  0  0
  -24.9406   15.3700  -30.5649 C   0  0  0  0  0  0  0  0  0  0  0  0
  -21.2131   15.7608  -30.8016 C   0  0  0  0  0  0  0  0  0  0  0  0
  -16.9305   16.2993  -26.7105 S   0  0  0  0  0  0  0  0  0  0  0  0
  -21.7906   16.5176  -27.7225 C   0  0  0  0  0  0  0  0  0  0  0  0
  -22.6271   15.7895  -30.1423 C   0  0  0  0  0  0  0  0  0  0  0  0
  -18.5650   16.6418  -26.4267 C   0  0  0  0  0  0  0  0  0  0  0  0
  1  2  4  0
  1  7  4  0
  2  4  4  0
  2 14  1  0
  3  5  4  0
  3 16  1  0
  3 17  4  0
  4 12  4  0
  4 16  1  0
  5 11  4  0
  6  7  4  0
  6 15  4  0
  7 12  4  0
  8 13  4  0
  8 17  4  0
  9 10  1  0
 10 18  1  0
 11 13  4  0
 12 18  4  0
 14 17  1  0
 15 18  4  0
M  END
$$$$
