
     RDKit          3D

 15 16  0  0  0  0  0  0  0  0999 V2000
  -22.3996   16.9170  -27.7860 C   0  0  0  0  0  0  0  0  0  0  0  0
  -20.0039   16.2618  -27.6594 C   0  0  0  0  0  0  0  0  0  0  0  0
  -18.8765   16.1431  -26.9584 N   0  0  0  0  0  0  0  0  0  0  0  0
  -23.4491   16.7850  -29.3711 O   0  0  0  0  0  0  0  0  0  0  0  0
  -16.4922   16.5039  -26.2380 C   0  0  0  0  0  0  0  0  0  0  0  0
  -20.4576   14.8389  -32.1027 O   0  0  0  0  0  0  0  0  0  0  0  0
  -22.4386   16.5516  -29.2414 C   0  0  0  0  0  0  0  0  0  0  0  0
  -21.2415   16.7910  -26.9842 C   0  0  0  0  0  0  0  0  0  0  0  0
  -23.6075   17.4408  -27.2710 O   0  0  0  0  0  0  0  0  0  0  0  0
  -20.0384   15.9631  -29.0376 C   0  0  0  0  0  0  0  0  0  0  0  0
  -18.0357   15.6570  -27.7950 C   0  0  0  0  0  0  0  0  0  0  0  0
  -18.4665   15.5115  -29.3481 S   0  0  0  0  0  0  0  0  0  0  0  0
  -21.3498   15.6391  -30.9821 C   0  0  0  0  0  0  0  0  0  0  0  0
  -16.7068   15.5045  -27.3498 N   0  0  0  0  0  0  0  0  0  0  0  0
  -21.2816   16.1179  -29.7872 N   0  0  0  0  0  0  0  0  0  0  0  0
  1  7  1  0
  1  8  2  0
  1  9  1  0
  2  3  1  0
  2  8  1  0
  2 10  2  0
  3 11  2  0
  4  7  2  0
  5 14  1  0
  6 13  1  0
  7 15  1  0
 10 12  1  0
 10 15  1  0
 11 12  1  0
 11 14  1  0
 13 15  1  0
M  END
$$$$
