
     RDKit          3D

 17 16  0  0  0  0  0  0  0  0999 V2000
  -19.5256   16.8206  -30.3449 C   0  0  0  0  0  0  0  0  0  0  0  0
  -18.6533   15.3836  -29.9073 C   0  0  0  0  0  0  0  0  0  0  0  0
  -19.4792   16.7691  -26.5343 C   0  0  0  0  0  0  0  0  0  0  0  0
  -24.4874   15.4302  -29.7469 C   0  0  0  0  0  0  0  0  0  0  0  0
  -25.1777   16.1807  -30.5591 O   0  0  0  0  0  0  0  0  0  0  0  0
  -17.9878   15.2201  -27.5873 C   0  0  0  0  0  0  0  0  0  0  0  0
  -16.6913   14.3154  -27.6045 C   0  0  0  0  0  0  0  0  0  0  0  0
  -24.8130   13.0341  -30.7030 C   0  0  0  0  0  0  0  0  0  0  0  0
  -17.7882   16.1208  -28.6948 C   0  0  0  0  0  0  0  0  0  0  0  0
  -24.3312   14.1626  -29.6838 C   0  0  0  0  0  0  0  0  0  0  0  0
  -15.6219   14.9766  -26.9763 C   0  0  0  0  0  0  0  0  0  0  0  0
  -21.9199   16.6517  -27.1770 C   0  0  0  0  0  0  0  0  0  0  0  0
  -23.9993   16.1942  -28.6291 C   0  0  0  0  0  0  0  0  0  0  0  0
  -18.1639   16.0734  -26.8032 C   0  0  0  0  0  0  0  0  0  0  0  0
  -20.6554   15.8817  -26.7940 C   0  0  0  0  0  0  0  0  0  0  0  0
  -18.3164   14.7863  -30.8668 C   0  0  0  0  0  0  0  0  0  0  0  0
  -22.7292   15.6190  -28.0271 C   0  0  0  0  0  0  0  0  0  0  0  0
  1  2  1  0
  2  9  1  0
  2 16  2  0
  3 14  1  0
  3 15  1  0
  4  5  1  0
  4 10  2  3
  4 13  1  0
  6  7  1  0
  6  9  1  0
  6 14  1  0
  7 11  1  0
  8 10  1  0
 12 15  1  0
 12 17  1  0
 13 17  1  0
M  END
$$$$
