
     RDKit          3D

 18 19  0  0  0  0  0  0  0  0999 V2000
  -22.5348   17.3658  -28.6446 C   0  0  0  0  0  0  0  0  0  0  0  0
  -18.4790   17.2032  -26.0321 C   0  0  0  0  0  0  0  0  0  0  0  0
  -19.5332   16.4371  -32.3842 C   0  0  0  0  0  0  0  0  0  0  0  0
  -18.0748   15.3594  -27.6560 C   0  0  0  0  0  0  0  0  0  0  0  0
  -19.0583   15.9596  -26.7040 C   0  0  0  0  0  0  0  0  0  0  0  0
  -23.1000   18.7024  -26.8200 O   0  0  0  0  0  0  0  0  0  0  0  0
  -19.9912   14.1888  -32.9678 O   0  0  0  0  0  0  0  0  0  0  0  0
  -21.7096   16.4688  -29.2213 C   0  0  0  0  0  0  0  0  0  0  0  0
  -21.9708   16.1165  -30.6042 C   0  0  0  0  0  0  0  0  0  0  0  0
  -21.1850   15.0904  -31.1675 N   0  0  0  0  0  0  0  0  0  0  0  0
  -17.0803   17.0591  -25.4870 C   0  0  0  0  0  0  0  0  0  0  0  0
  -22.2343   17.7863  -27.3932 C   0  0  0  0  0  0  0  0  0  0  0  0
  -20.5502   16.0405  -28.6166 C   0  0  0  0  0  0  0  0  0  0  0  0
  -16.7374   15.1276  -27.0902 C   0  0  0  0  0  0  0  0  0  0  0  0
  -16.2088   16.2681  -26.4345 N   0  0  0  0  0  0  0  0  0  0  0  0
  -20.2100   15.1082  -32.1573 C   0  0  0  0  0  0  0  0  0  0  0  0
  -20.2749   16.4427  -27.3575 C   0  0  0  0  0  0  0  0  0  0  0  0
  -21.1081   17.3272  -26.7258 C   0  0  0  0  0  0  0  0  0  0  0  0
  1  8  1  0
  1 12  2  0
  2  5  1  0
  2 11  1  0
  3 16  1  0
  4  5  1  0
  4 14  1  0
  5 17  1  0
  6 12  1  0
  7 16  2  0
  8  9  1  0
  8 13  2  0
  9 10  1  0
 10 16  1  0
 11 15  1  0
 12 18  1  0
 13 17  1  0
 14 15  1  0
 17 18  2  0
M  END
$$$$
