
     RDKit          3D

 42 45  0  0  0  0  0  0  0  0999 V2000
    2.2740   20.5828  -35.1691 C   0  0  0  0  0  0  0  0  0  0  0  0
   -2.3125   26.1753  -31.2491 C   0  0  0  0  0  0  0  0  0  0  0  0
   -3.3717   25.8427  -29.0586 C   0  0  0  0  0  0  0  0  0  0  0  0
    3.8809   19.0497  -31.3428 C   0  0  0  0  0  0  0  0  0  0  0  0
    2.7003   19.9262  -33.7648 N   0  0  0  0  0  0  0  0  0  0  0  0
    2.8574   23.7983  -29.0518 C   0  0  0  0  0  0  0  0  0  0  0  0
    0.6358   21.5217  -37.0094 C   0  0  0  0  0  0  0  0  0  0  0  0
    1.2803   21.5399  -34.9454 C   0  0  0  0  0  0  0  0  0  0  0  0
   -0.0938   23.2553  -31.7325 C   0  0  0  0  0  0  0  0  0  0  0  0
   -2.3535   22.5322  -30.0994 C   0  0  0  0  0  0  0  0  0  0  0  0
    2.3937   19.9108  -36.4452 C   0  0  0  0  0  0  0  0  0  0  0  0
   -0.4377   22.0299  -28.4932 C   0  0  0  0  0  0  0  0  0  0  0  0
    3.9738   21.4784  -35.4274 Cl  0  0  0  0  0  0  0  0  0  0  0  0
   -0.5861   24.5717  -31.8391 C   0  0  0  0  0  0  0  0  0  0  0  0
   -1.7622   24.8910  -31.0904 C   0  0  0  0  0  0  0  0  0  0  0  0
    3.7423   17.6706  -33.2562 C   0  0  0  0  0  0  0  0  0  0  0  0
   -1.8632   24.0163  -29.8286 C   0  0  0  0  0  0  0  0  0  0  0  0
   -3.0014   19.7371  -30.4923 C   0  0  0  0  0  0  0  0  0  0  0  0
   -1.6642   20.2398  -30.1067 N   0  0  0  0  0  0  0  0  0  0  0  0
   -3.9236   27.6575  -29.7329 O   0  0  0  0  0  0  0  0  0  0  0  0
    1.0783   20.5009  -37.5390 C   0  0  0  0  0  0  0  0  0  0  0  0
    4.1724   17.8130  -32.0072 C   0  0  0  0  0  0  0  0  0  0  0  0
   -4.4697   26.4173  -28.5864 C   0  0  0  0  0  0  0  0  0  0  0  0
   -2.9238   23.9397  -27.7240 O   0  0  0  0  0  0  0  0  0  0  0  0
    0.6385   21.6418  -29.4198 C   0  0  0  0  0  0  0  0  0  0  0  0
   -1.7151   21.3237  -29.2602 C   0  0  0  0  0  0  0  0  0  0  0  0
   -3.8203   19.3078  -29.5597 C   0  0  0  0  0  0  0  0  0  0  0  0
    0.8355   19.4943  -31.5883 O   0  0  0  0  0  0  0  0  0  0  0  0
    2.7936   21.0428  -32.1184 C   0  0  0  0  0  0  0  0  0  0  0  0
    0.6676   22.0757  -35.9677 C   0  0  0  0  0  0  0  0  0  0  0  0
    1.9193   20.2081  -37.5958 C   0  0  0  0  0  0  0  0  0  0  0  0
   -5.6801   26.3645  -29.0125 F   0  0  0  0  0  0  0  0  0  0  0  0
    1.9923   23.8948  -30.4605 C   0  0  0  0  0  0  0  0  0  0  0  0
   -2.7507   24.5617  -28.7454 C   0  0  0  0  0  0  0  0  0  0  0  0
    0.3343   23.2209  -30.1957 C   0  0  0  0  0  0  0  0  0  0  0  0
    3.1472   20.3288  -31.2215 C   0  0  0  0  0  0  0  0  0  0  0  0
    1.7855   20.6853  -31.2885 C   0  0  0  0  0  0  0  0  0  0  0  0
    3.1096   18.6339  -33.8787 C   0  0  0  0  0  0  0  0  0  0  0  0
   -3.0629   26.5491  -30.1561 C   0  0  0  0  0  0  0  0  0  0  0  0
   -0.0757   18.6158  -29.4891 O   0  0  0  0  0  0  0  0  0  0  0  0
   -0.3748   19.0382  -30.8019 C   0  0  0  0  0  0  0  0  0  0  0  0
   -4.6041   26.2305  -27.1455 F   0  0  0  0  0  0  0  0  0  0  0  0
  1  5  1  0
  1  8  4  0
  1 11  4  0
  2 15  4  0
  2 39  2  0
  3 23  1  0
  3 34  1  0
  3 39  1  0
  4 22  1  0
  4 36  1  0
  5 38  2  3
  6 33  1  0
  7 21  4  0
  7 30  4  0
  8 30  4  0
  9 14  1  0
  9 35  1  0
 10 17  1  0
 10 26  1  0
 11 31  4  0
 12 25  1  0
 12 26  1  0
 14 15  1  0
 15 17  1  0
 16 22  1  0
 16 38  1  0
 17 34  1  0
 18 19  1  0
 18 27  2  0
 19 26  1  0
 19 41  1  0
 20 23  1  0
 20 39  1  0
 21 31  1  0
 23 32  1  0
 23 42  1  0
 24 34  2  0
 25 35  1  0
 28 37  1  0
 28 41  1  0
 29 36  1  0
 29 37  1  0
 33 35  1  0
 36 37  1  0
 40 41  1  0
M  END
$$$$
