
     RDKit          3D

 19 21  0  0  0  0  0  0  0  0999 V2000
    2.2875   27.2844   14.4570 C   0  0  0  0  0  0  0  0  0  0  0  0
    5.1617   24.5864   13.5764 N   0  0  0  0  0  0  0  0  0  0  0  0
    2.9141   23.1805    8.7005 C   0  0  0  0  0  0  0  0  0  0  0  0
    3.2838   27.1258   16.9471 Cl  0  0  0  0  0  0  0  0  0  0  0  0
    3.1091   26.8291   15.3234 C   0  0  0  0  0  0  0  0  0  0  0  0
    3.9956   25.8272   15.1163 C   0  0  0  0  0  0  0  0  0  0  0  0
    4.2107   23.8929   10.5084 C   0  0  0  0  0  0  0  0  0  0  0  0
    6.2660   23.3802   11.5550 O   0  0  0  0  0  0  0  0  0  0  0  0
    2.1245   24.2991    8.8127 C   0  0  0  0  0  0  0  0  0  0  0  0
    2.9058   22.2471    7.8405 O   0  0  0  0  0  0  0  0  0  0  0  0
    3.8911   25.9238   11.5400 N   0  0  0  0  0  0  0  0  0  0  0  0
    4.2257   25.4671   13.7990 C   0  0  0  0  0  0  0  0  0  0  0  0
    5.2858   23.5965   11.3756 C   0  0  0  0  0  0  0  0  0  0  0  0
    2.6178   27.0435   13.1312 C   0  0  0  0  0  0  0  0  0  0  0  0
    3.4337   25.0567   10.6531 C   0  0  0  0  0  0  0  0  0  0  0  0
    3.5662   26.1202   12.7866 C   0  0  0  0  0  0  0  0  0  0  0  0
    4.7522   23.5318   13.1714 N   0  0  0  0  0  0  0  0  0  0  0  0
    2.3965   25.1958    9.7909 C   0  0  0  0  0  0  0  0  0  0  0  0
    3.9333   22.9650    9.5554 C   0  0  0  0  0  0  0  0  0  0  0  0
  1  5  1  0
  1 14  2  0
  2 12  1  0
  2 17  1  0
  3  9  1  0
  3 10  1  0
  3 19  2  0
  4  5  1  0
  5  6  2  0
  6 12  1  0
  7 13  1  0
  7 15  2  0
  7 19  1  0
  8 13  2  0
  9 18  2  0
 11 15  1  0
 11 16  1  0
 12 16  2  0
 13 17  1  0
 14 16  1  0
 15 18  1  0
M  END
$$$$
