
     RDKit          3D

 26 30  0  0  0  0  0  0  0  0999 V2000
    3.7682   24.4987   15.5033 C   0  0  0  0  0  0  0  0  0  0  0  0
    3.4697   26.6164   10.9779 C   0  0  0  0  0  0  0  0  0  0  0  0
    2.9847   22.6060    8.0211 C   0  0  0  0  0  0  0  0  0  0  0  0
    4.8431   23.8685   14.5041 C   0  0  0  0  0  0  0  0  0  0  0  0
    2.8611   27.6149   11.9992 C   0  0  0  0  0  0  0  0  0  0  0  0
    4.9690   21.5004   12.1380 N   0  0  0  0  0  0  0  0  0  0  0  0
    2.3593   27.5176   14.4831 N   0  0  0  0  0  0  0  0  0  0  0  0
    4.5937   23.7432    9.3627 C   0  0  0  0  0  0  0  0  0  0  0  0
    4.1536   22.3501   12.9749 C   0  0  0  0  0  0  0  0  0  0  0  0
    5.9669   23.6837   12.3884 O   0  0  0  0  0  0  0  0  0  0  0  0
    3.9477   25.3441   11.2068 C   0  0  0  0  0  0  0  0  0  0  0  0
    3.6050   27.1274    9.6119 C   0  0  0  0  0  0  0  0  0  0  0  0
    3.3074   25.5711   14.8850 N   0  0  0  0  0  0  0  0  0  0  0  0
    3.8617   24.8160   12.5314 C   0  0  0  0  0  0  0  0  0  0  0  0
    1.9562   23.1765    8.7702 C   0  0  0  0  0  0  0  0  0  0  0  0
    2.3693   26.8765   16.6084 N   0  0  0  0  0  0  0  0  0  0  0  0
    4.3408   22.8790    8.3117 C   0  0  0  0  0  0  0  0  0  0  0  0
    2.2723   24.0237    9.8263 C   0  0  0  0  0  0  0  0  0  0  0  0
    3.5928   24.3383   10.1055 C   0  0  0  0  0  0  0  0  0  0  0  0
    4.8096   23.5968   12.7936 C   0  0  0  0  0  0  0  0  0  0  0  0
    6.1707   24.4530   14.9785 O   0  0  0  0  0  0  0  0  0  0  0  0
    3.5950   24.2325   16.6909 O   0  0  0  0  0  0  0  0  0  0  0  0
    2.7098   26.5898   15.3060 C   0  0  0  0  0  0  0  0  0  0  0  0
    3.3497   25.7464   13.4415 C   0  0  0  0  0  0  0  0  0  0  0  0
    2.9043   26.9866   13.2766 C   0  0  0  0  0  0  0  0  0  0  0  0
    4.9170   22.5839   14.5782 C   0  0  0  0  0  0  0  0  0  0  0  0
  1  4  1  0
  1 13  1  0
  1 22  2  0
  2  5  2  0
  2 11  1  0
  2 12  1  0
  3 15  2  0
  3 17  1  0
  4 20  1  0
  4 21  1  0
  4 26  1  0
  5 25  1  0
  6  9  1  0
  7 23  2  0
  7 25  1  0
  8 17  2  0
  8 19  1  0
  9 20  1  0
  9 26  1  0
 10 20  1  0
 11 14  2  0
 11 19  1  0
 13 23  1  0
 13 24  1  0
 14 20  1  0
 14 24  1  0
 15 18  1  0
 16 23  1  0
 18 19  2  0
 24 25  2  0
M  END
$$$$
