
     RDKit          3D

 26 28  0  0  0  0  0  0  0  0999 V2000
    3.2951   25.5738   16.5484 C   0  0  0  0  0  0  0  0  0  0  0  0
    2.9233   23.5231   11.4001 C   0  0  0  0  0  0  0  0  0  0  0  0
    3.8735   23.3726   12.3291 N   0  0  0  0  0  0  0  0  0  0  0  0
    2.5057   22.9940    9.1227 N   0  0  0  0  0  0  0  0  0  0  0  0
    5.5796   23.7360   10.6024 C   0  0  0  0  0  0  0  0  0  0  0  0
    3.2146   26.8405   11.3613 C   0  0  0  0  0  0  0  0  0  0  0  0
    3.0681   28.0253   17.2151 Cl  0  0  0  0  0  0  0  0  0  0  0  0
    3.5303   23.5694   13.7102 C   0  0  0  0  0  0  0  0  0  0  0  0
    3.2792   23.2854   10.0312 C   0  0  0  0  0  0  0  0  0  0  0  0
    3.0883   27.0783   14.8284 C   0  0  0  0  0  0  0  0  0  0  0  0
    3.4070   22.9559    8.0126 C   0  0  0  0  0  0  0  0  0  0  0  0
    6.5823   24.3005   13.5016 O   0  0  0  0  0  0  0  0  0  0  0  0
    3.4025   27.2255    9.9772 C   0  0  0  0  0  0  0  0  0  0  0  0
    3.0987   26.8484   16.1080 C   0  0  0  0  0  0  0  0  0  0  0  0
    6.3347   23.1065   12.9180 C   0  0  0  0  0  0  0  0  0  0  0  0
    4.5519   23.2861    9.7329 N   0  0  0  0  0  0  0  0  0  0  0  0
    3.3801   24.5293   15.6235 C   0  0  0  0  0  0  0  0  0  0  0  0
    5.2614   23.1034   11.9095 C   0  0  0  0  0  0  0  0  0  0  0  0
    4.6462   23.1588    8.4365 C   0  0  0  0  0  0  0  0  0  0  0  0
    6.7910   23.3458   10.0795 O   0  0  0  0  0  0  0  0  0  0  0  0
    3.1566   26.5202   12.5255 C   0  0  0  0  0  0  0  0  0  0  0  0
    3.3245   24.8569   14.2923 C   0  0  0  0  0  0  0  0  0  0  0  0
    3.9123   28.5655    9.9826 C   0  0  0  0  0  0  0  0  0  0  0  0
    1.7855   23.7500   11.7073 O   0  0  0  0  0  0  0  0  0  0  0  0
    3.1753   26.1282   13.8851 C   0  0  0  0  0  0  0  0  0  0  0  0
    4.3113   26.2145    9.3093 C   0  0  0  0  0  0  0  0  0  0  0  0
  1 14  1  0
  1 17  2  0
  2  3  1  0
  2  9  1  0
  2 24  2  0
  3  8  1  0
  3 18  1  0
  4  9  2  0
  4 11  1  0
  5 16  1  0
  5 18  1  0
  5 20  1  0
  6 13  1  0
  6 21  3  0
  7 14  1  0
  8 22  1  0
  9 16  1  0
 10 14  2  0
 10 25  1  0
 11 19  2  0
 12 15  1  0
 13 23  1  0
 13 26  1  0
 15 18  1  0
 16 19  1  0
 17 22  1  0
 21 25  1  0
 22 25  2  0
M  END
$$$$
