
     RDKit          3D

 14 15  0  0  0  0  0  0  0  0999 V2000
    2.1931   23.8818    9.2662 C   0  0  0  0  0  0  0  0  0  0  0  0
    2.1947   24.5607   10.4537 C   0  0  0  0  0  0  0  0  0  0  0  0
    3.1435   25.2023   12.6373 C   0  0  0  0  0  0  0  0  0  0  0  0
    2.5498   24.5712   13.7151 C   0  0  0  0  0  0  0  0  0  0  0  0
    2.2703   27.2577   16.1272 O   0  0  0  0  0  0  0  0  0  0  0  0
    4.3321   23.6599   11.0004 C   0  0  0  0  0  0  0  0  0  0  0  0
    3.2727   22.3575    7.8178 O   0  0  0  0  0  0  0  0  0  0  0  0
    2.5600   26.5749   14.9282 C   0  0  0  0  0  0  0  0  0  0  0  0
    3.4670   26.5195   12.7218 N   0  0  0  0  0  0  0  0  0  0  0  0
    2.2615   25.2544   14.8740 C   0  0  0  0  0  0  0  0  0  0  0  0
    3.1646   27.1703   13.8629 C   0  0  0  0  0  0  0  0  0  0  0  0
    3.2748   23.0933    8.9640 C   0  0  0  0  0  0  0  0  0  0  0  0
    3.2849   24.4357   11.3036 C   0  0  0  0  0  0  0  0  0  0  0  0
    4.3347   22.9789    9.8173 C   0  0  0  0  0  0  0  0  0  0  0  0
  1  2  2  0
  1 12  1  0
  2 13  1  0
  3  4  1  0
  3  9  2  0
  3 13  1  0
  4 10  2  0
  5  8  1  0
  6 13  2  0
  6 14  1  0
  7 12  1  0
  8 10  1  0
  8 11  2  0
  9 11  1  0
 12 14  2  0
M  END
$$$$
