
     RDKit          3D

 24 24  0  0  0  0  0  0  0  0999 V2000
   32.5212   50.0092   84.2017 C   0  0  0  0  0  0  0  0  0  0  0  0
   28.8122   55.7239   81.7219 O   0  0  0  0  0  0  0  0  0  0  0  0
   31.7291   46.7285   83.0530 C   0  0  0  0  0  0  0  0  0  0  0  0
   30.4292   53.1411   81.2419 C   0  0  0  0  0  0  0  0  0  0  0  0
   33.6118   44.9296   80.4747 C   0  0  0  0  0  0  0  0  0  0  0  0
   32.1857   51.7718   82.4512 C   0  0  0  0  0  0  0  0  0  0  0  0
   32.8834   50.5225   82.8874 C   0  0  0  0  0  0  0  0  0  0  0  0
   30.3792   47.8497   84.4763 C   0  0  0  0  0  0  0  0  0  0  0  0
   33.7211   49.8609   82.3572 O   0  0  0  0  0  0  0  0  0  0  0  0
   34.1284   47.2228   82.1471 S   0  0  0  0  0  0  0  0  0  0  0  0
   32.0051   45.8113   82.1344 N   0  0  0  0  0  0  0  0  0  0  0  0
   30.5650   46.8596   83.7390 N   0  0  0  0  0  0  0  0  0  0  0  0
   27.0940   52.4428   80.1263 O   0  0  0  0  0  0  0  0  0  0  0  0
   28.2395   53.2358   80.3361 P   0  0  0  0  0  0  0  0  0  0  0  0
   26.6972   55.4960   81.3438 O   0  0  0  0  0  0  0  0  0  0  0  0
   27.7792   54.2509   83.1896 O   0  0  0  0  0  0  0  0  0  0  0  0
   32.5212   48.7290   84.3019 C   0  0  0  0  0  0  0  0  0  0  0  0
   29.3374   52.4677   80.9910 O   0  0  0  0  0  0  0  0  0  0  0  0
   31.0550   48.4530   84.5836 N   0  0  0  0  0  0  0  0  0  0  0  0
   33.1580   45.8994   81.5784 C   0  0  0  0  0  0  0  0  0  0  0  0
   31.4426   52.6002   81.9903 C   0  0  0  0  0  0  0  0  0  0  0  0
   32.7782   47.6316   83.1829 C   0  0  0  0  0  0  0  0  0  0  0  0
   27.7800   54.7637   81.8308 P   0  0  0  0  0  0  0  0  0  0  0  0
   28.8462   54.0538   79.3066 O   0  0  0  0  0  0  0  0  0  0  0  0
  1  7  1  0
  1 17  1  0
  2 23  1  0
  3 11  1  0
  3 12  1  0
  3 22  2  0
  4 18  1  0
  4 21  1  0
  5 20  1  0
  6  7  1  0
  6 21  3  0
  7  9  2  0
  8 12  1  0
  8 19  1  0
 10 20  1  0
 10 22  1  0
 11 20  2  0
 13 14  2  0
 14 18  1  0
 14 24  1  0
 15 23  2  0
 16 23  1  0
 17 19  1  0
 17 22  1  0
M  END
$$$$
