
     RDKit          3D

 19 20  0  0  0  0  0  0  0  0999 V2000
   -6.2387    0.4926    0.1751 C   0  0  0  0  0  0  0  0  0  0  0  0
   -2.2738   -0.6030   -1.1160 C   0  0  0  0  0  0  0  0  0  0  0  0
   -1.2945   -0.4545    0.0544 C   0  0  0  0  0  0  0  0  0  0  0  0
    1.7359    0.6540   -0.8374 N   0  0  0  0  0  0  0  0  0  0  0  0
    6.2876   -0.5764   -0.3575 O   0  0  0  0  0  0  0  0  0  0  0  0
    4.4367    0.5669    0.5866 C   0  0  0  0  0  0  0  0  0  0  0  0
   -5.8119   -0.8342    0.2792 C   0  0  0  0  0  0  0  0  0  0  0  0
    0.6921    0.1007   -1.3031 N   0  0  0  0  0  0  0  0  0  0  0  0
    0.1299   -0.8545   -0.3513 C   0  0  1  0  0  0  0  0  0  0  0  0
    5.0390    1.8616    0.1027 C   0  0  0  0  0  0  0  0  0  0  0  0
    1.9974    0.1436    0.4588 C   0  0  0  0  0  0  0  0  0  0  0  0
   -4.0986    1.1085   -0.7783 C   0  0  0  0  0  0  0  0  0  0  0  0
    5.0786   -0.5950    0.3345 C   0  0  0  0  0  0  0  0  0  0  0  0
   -5.3821    1.4634   -0.3512 C   0  0  0  0  0  0  0  0  0  0  0  0
    3.1217    0.6125    1.3327 C   0  0  0  0  0  0  0  0  0  0  0  0
    4.5763   -1.8348    0.7423 O   0  0  0  0  0  0  0  0  0  0  0  0
   -4.5292   -1.1934   -0.1467 C   0  0  0  0  0  0  0  0  0  0  0  0
    1.0739   -0.7368    0.8018 C   0  0  0  0  0  0  0  0  0  0  0  0
   -3.6673   -0.2258   -0.6899 C   0  0  0  0  0  0  0  0  0  0  0  0
  1  7  2  0
  1 14  1  0
  2  3  1  0
  2 19  1  0
  9  3  1  1
  4  8  2  0
  4 11  1  0
  5 13  1  0
  6 10  1  0
  6 13  2  3
  6 15  1  0
  7 17  1  0
  8  9  1  0
  9 18  1  0
 11 15  1  0
 11 18  2  0
 12 14  2  0
 12 19  1  0
 13 16  1  0
 17 19  2  0
M  END
