
     RDKit          3D

 25 28  0  0  0  0  0  0  0  0999 V2000
    0.6628    0.3995    0.2795 C   0  0  0  0  0  0  0  0  0  0  0  0
   -3.5918    2.9509    2.0327 O   0  0  0  0  0  0  0  0  0  0  0  0
   -0.0773   -0.8359    0.6221 C   0  0  0  0  0  0  0  0  0  0  0  0
   -1.2598   -2.6758    0.2131 N   0  0  0  0  0  0  0  0  0  0  0  0
   -5.3097    3.5588    0.5985 C   0  0  0  0  0  0  0  0  0  0  0  0
   -2.8077    0.6591    0.5709 C   0  0  0  0  0  0  0  0  0  0  0  0
   -3.1499   -0.7553   -1.3659 C   0  0  0  0  0  0  0  0  0  0  0  0
   -6.1764    4.2620    0.2924 N   0  0  0  0  0  0  0  0  0  0  0  0
   -2.3174   -3.6067   -0.1714 C   0  0  0  0  0  0  0  0  0  0  0  0
    5.2355    1.2933   -0.9013 C   0  0  0  0  0  0  0  0  0  0  0  0
   -4.5631    1.1795   -1.0164 C   0  0  0  0  0  0  0  0  0  0  0  0
   -3.8668    1.4943    0.1663 C   0  0  0  0  0  0  0  0  0  0  0  0
   -1.3195   -1.3164    0.2572 C   0  0  0  0  0  0  0  0  0  0  0  0
    4.4379    2.6014   -0.8914 C   0  0  0  0  0  0  0  0  0  0  0  0
    3.1424    0.7475   -0.2283 C   0  0  0  0  0  0  0  0  0  0  0  0
    3.0012   -1.7800    1.7542 C   0  0  0  0  0  0  0  0  0  0  0  0
    0.7496   -1.8937    0.7325 C   0  0  0  0  0  0  0  0  0  0  0  0
   -4.2018    0.0647   -1.7758 C   0  0  0  0  0  0  0  0  0  0  0  0
   -2.4549   -0.4740   -0.1806 C   0  0  0  0  0  0  0  0  0  0  0  0
   -4.2306    2.6837    0.9800 C   0  0  0  0  0  0  0  0  0  0  0  0
    0.0254   -3.0312    0.4528 C   0  0  0  0  0  0  0  0  0  0  0  0
    2.1645   -1.5169    0.5018 C   0  0  1  0  0  0  0  0  0  0  0  0
    3.0192    2.2030   -0.4893 C   0  0  0  0  0  0  0  0  0  0  0  0
    4.3163    0.2675   -0.4483 N   0  0  0  0  0  0  0  0  0  0  0  0
    2.0539   -0.0734    0.2240 N   0  0  0  0  0  0  0  0  0  0  0  0
  1  3  1  0
  1 25  1  0
  2 20  2  0
  3 13  2  0
  3 17  1  0
  4  9  1  0
  4 13  1  0
  4 21  1  0
  5  8  3  0
  5 20  1  0
  6 12  2  0
  6 19  1  0
  7 18  1  0
  7 19  2  0
 10 14  1  0
 10 24  1  0
 11 12  1  0
 11 18  2  0
 12 20  1  0
 13 19  1  0
 14 23  1  0
 15 23  1  0
 15 24  2  0
 15 25  1  0
 22 16  1  1
 17 21  2  0
 17 22  1  0
 22 25  1  0
M  END
