
     RDKit          3D

 23 24  0  0  0  0  0  0  0  0999 V2000
   -2.0618   -0.7889   -2.0653 C   0  0  0  0  0  0  0  0  0  0  0  0
   -6.2715    1.3422   -0.1253 O   0  0  0  0  0  0  0  0  0  0  0  0
    0.2244   -0.0689   -0.3979 N   0  0  0  0  0  0  0  0  0  0  0  0
   -2.5525    0.4598    2.0441 C   0  0  0  0  0  0  0  0  0  0  0  0
   -1.1048    0.0149    0.1465 C   0  0  0  0  0  0  0  0  0  0  0  0
   -7.2616   -0.6444   -1.7907 O   0  0  0  0  0  0  0  0  0  0  0  0
    6.2726   -0.9002    1.6254 C   0  0  0  0  0  0  0  0  0  0  0  0
    5.4385    0.1827   -0.1358 N   0  0  0  0  0  0  0  0  0  0  0  0
    5.9262   -1.8377    0.6707 C   0  0  0  0  0  0  0  0  0  0  0  0
   -1.2837    0.4363    1.4732 C   0  0  0  0  0  0  0  0  0  0  0  0
    3.5864    1.7623   -0.5346 C   0  0  0  0  0  0  0  0  0  0  0  0
    1.2083    0.9635   -0.2381 C   0  0  0  0  0  0  0  0  0  0  0  0
   -6.2952   -0.3342   -0.4240 S   0  0  0  0  0  0  0  0  0  0  0  0
    5.4129   -1.1375   -0.4021 C   0  0  0  0  0  0  0  0  0  0  0  0
    4.9526    1.2532   -1.0058 C   0  0  0  0  0  0  0  0  0  0  0  0
    0.8866    2.0781    0.2581 O   0  0  0  0  0  0  0  0  0  0  0  0
   -4.6603   -0.8935   -0.7363 N   0  0  0  0  0  0  0  0  0  0  0  0
   -3.6585    0.0383    1.3109 C   0  0  0  0  0  0  0  0  0  0  0  0
    2.5543    0.7341   -0.6715 N   0  0  0  0  0  0  0  0  0  0  0  0
   -2.2295   -0.3860   -0.6187 C   0  0  0  0  0  0  0  0  0  0  0  0
   -6.9286   -1.1563    0.9254 O   0  0  0  0  0  0  0  0  0  0  0  0
   -3.5150   -0.4001   -0.0166 C   0  0  0  0  0  0  0  0  0  0  0  0
    5.9571    0.3354    1.0979 C   0  0  0  0  0  0  0  0  0  0  0  0
  1 20  1  0
  2 13  1  0
  3  5  1  0
  3 12  1  0
  4 10  2  0
  4 18  1  0
  5 10  1  0
  5 20  2  0
  6 13  1  0
  7  9  1  0
  7 23  2  0
  8 14  1  0
  8 15  1  0
  8 23  1  0
  9 14  2  0
 11 15  1  0
 11 19  1  0
 12 16  2  0
 12 19  1  0
 13 17  1  0
 13 21  1  0
 17 22  1  0
 18 22  2  0
 20 22  1  0
M  END
