
     RDKit          3D

 20 21  0  0  0  0  0  0  0  0999 V2000
   -2.6029    0.4848   -0.6424 C   0  0  0  0  0  0  0  0  0  0  0  0
   -5.4822    0.6505    1.0745 O   0  0  0  0  0  0  0  0  0  0  0  0
    2.4774    1.6748    0.0149 C   0  0  0  0  0  0  0  0  0  0  0  0
   -4.1866    0.6581    2.9689 O   0  0  0  0  0  0  0  0  0  0  0  0
    4.1970    0.4323   -1.2419 N   0  0  0  0  0  0  0  0  0  0  0  0
    4.6229    0.4734    1.0184 C   0  0  0  0  0  0  0  0  0  0  0  0
   -4.2437   -1.6731    0.3501 O   0  0  0  0  0  0  0  0  0  0  0  0
    3.7274    0.8481   -0.1141 C   0  0  0  0  0  0  0  0  0  0  0  0
    5.3875   -0.2626   -1.0199 N   0  0  0  0  0  0  0  0  0  0  0  0
    1.1608    0.9110   -0.2587 C   0  0  1  0  0  0  0  0  0  0  0  0
   -1.6018    0.5696    1.5191 O   0  0  0  0  0  0  0  0  0  0  0  0
    0.1006   -1.2350   -0.2699 N   0  0  0  0  0  0  0  0  0  0  0  0
    5.6588   -0.2631    0.2417 C   0  0  0  0  0  0  0  0  0  0  0  0
   -2.2152   -0.3183    0.6159 C   0  0  1  0  0  0  0  0  0  0  0  0
   -3.5148   -0.9029    1.2754 C   0  0  1  0  0  0  0  0  0  0  0  0
    0.1787   -0.8068   -1.6724 C   0  0  0  0  0  0  0  0  0  0  0  0
   -1.2525   -1.5201    0.2759 C   0  0  0  0  0  0  0  0  0  0  0  0
    0.9355    0.5213   -1.7179 C   0  0  0  0  0  0  0  0  0  0  0  0
    0.9969   -0.3902    0.5202 C   0  0  0  0  0  0  0  0  0  0  0  0
   -4.4131    0.1726    1.8280 C   0  0  0  0  0  0  0  0  0  0  0  0
 14  1  1  6
  2 20  1  0
  3  8  1  0
 10  3  1  6
  4 20  2  0
  5  8  2  0
  5  9  1  0
  6  8  1  0
  6 13  1  0
 15  7  1  6
  9 13  2  0
 10 18  1  0
 10 19  1  0
 11 14  1  0
 12 16  1  0
 12 17  1  0
 12 19  1  0
 14 15  1  0
 14 17  1  0
 15 20  1  0
 16 18  1  0
M  END
