
     RDKit          3D

 26 29  0  0  0  0  0  0  0  0999 V2000
    2.7221   -1.8738    0.0209 C   0  0  0  0  0  0  0  0  0  0  0  0
   -3.5638    0.8862    0.7750 C   0  0  0  0  0  0  0  0  0  0  0  0
   -1.6099    3.7542    1.3205 O   0  0  0  0  0  0  0  0  0  0  0  0
   -4.3990   -1.6623   -0.0382 C   0  0  0  0  0  0  0  0  0  0  0  0
   -0.7194    0.1135   -1.7125 C   0  0  0  0  0  0  0  0  0  0  0  0
    0.6971   -1.8873   -1.3094 C   0  0  0  0  0  0  0  0  0  0  0  0
    0.4961   -0.5174   -1.0812 C   0  0  0  0  0  0  0  0  0  0  0  0
    4.7608    0.6255    0.3687 C   0  0  0  0  0  0  0  0  0  0  0  0
    3.8270   -2.6380    0.6508 C   0  0  0  0  0  0  0  0  0  0  0  0
   -1.9701    2.6508    0.8267 C   0  0  0  0  0  0  0  0  0  0  0  0
    4.1640   -3.7621    0.1894 O   0  0  0  0  0  0  0  0  0  0  0  0
   -6.3352   -1.4485    1.3305 F   0  0  0  0  0  0  0  0  0  0  0  0
    1.7871   -2.5546   -0.7655 C   0  0  0  0  0  0  0  0  0  0  0  0
   -2.7803    0.1636   -0.1615 C   0  0  0  0  0  0  0  0  0  0  0  0
    1.3306    1.6893    0.0898 C   0  0  0  0  0  0  0  0  0  0  0  0
    0.1984    2.5427   -0.4972 C   0  0  0  0  0  0  0  0  0  0  0  0
    4.4830   -2.1428    1.7746 O   0  0  0  0  0  0  0  0  0  0  0  0
   -5.1799   -0.9261    0.8502 C   0  0  0  0  0  0  0  0  0  0  0  0
    2.5665   -0.4845    0.2259 C   0  0  0  0  0  0  0  0  0  0  0  0
   -4.7629    0.3392    1.2609 C   0  0  0  0  0  0  0  0  0  0  0  0
   -3.1480    2.1026    1.2231 N   0  0  0  0  0  0  0  0  0  0  0  0
    3.5267    0.2260    0.9553 O   0  0  0  0  0  0  0  0  0  0  0  0
    1.4450    0.2094   -0.2977 C   0  0  0  0  0  0  0  0  0  0  0  0
   -3.2072   -1.1316   -0.5375 C   0  0  0  0  0  0  0  0  0  0  0  0
   -1.5914    0.7634   -0.6595 C   0  0  0  0  0  0  0  0  0  0  0  0
   -1.1614    1.9927   -0.1196 C   0  0  0  0  0  0  0  0  0  0  0  0
  1  9  1  0
  1 13  1  0
  1 19  2  0
  2 14  2  0
  2 20  1  0
  2 21  1  0
  3 10  2  0
  4 18  1  0
  4 24  2  0
  5  7  1  0
  5 25  1  0
  6  7  1  0
  6 13  2  0
  7 23  2  0
  8 22  1  0
  9 11  2  0
  9 17  1  0
 10 21  1  0
 10 26  1  0
 12 18  1  0
 14 24  1  0
 14 25  1  0
 15 16  1  0
 15 23  1  0
 16 26  1  0
 18 20  2  0
 19 22  1  0
 19 23  1  0
 25 26  2  0
M  END
