
     RDKit          3D

 30 33  0  0  0  0  0  0  0  0999 V2000
    2.3031   -0.7317   -0.1011 C   0  0  0  0  0  0  0  0  0  0  0  0
   -2.2076   -2.2390    0.0821 N   0  0  0  0  0  0  0  0  0  0  0  0
   -0.1653   -3.1272   -0.8193 N   0  0  0  0  0  0  0  0  0  0  0  0
   -0.8075   -4.0321   -1.7650 C   0  0  0  0  0  0  0  0  0  0  0  0
    2.0240   -2.4558    1.5437 O   0  0  0  0  0  0  0  0  0  0  0  0
   -2.9987   -3.4399    0.3768 C   0  0  0  0  0  0  0  0  0  0  0  0
   -0.7764   -2.3310    0.0126 C   0  0  0  0  0  0  0  0  0  0  0  0
    1.4481   -1.5329    0.7337 N   0  0  0  0  0  0  0  0  0  0  0  0
   -3.9914    1.6428    0.2207 C   0  0  0  0  0  0  0  0  0  0  0  0
    3.2360    0.1527    0.4770 C   0  0  0  0  0  0  0  0  0  0  0  0
   -4.6021    2.9074    0.2364 C   0  0  0  0  0  0  0  0  0  0  0  0
   -2.5803    1.5279    0.3304 C   0  0  0  0  0  0  0  0  0  0  0  0
   -2.4406    3.9669    0.4214 C   0  0  0  0  0  0  0  0  0  0  0  0
    2.2195   -0.8363   -1.4972 C   0  0  0  0  0  0  0  0  0  0  0  0
   -3.8281    4.0619    0.3413 C   0  0  0  0  0  0  0  0  0  0  0  0
   -4.7778    0.4986    0.0732 C   0  0  0  0  0  0  0  0  0  0  0  0
    3.0510   -0.0693   -2.3125 C   0  0  0  0  0  0  0  0  0  0  0  0
    6.1353    2.8770   -0.8776 O   0  0  0  0  0  0  0  0  0  0  0  0
   -4.1899   -0.7595    0.0201 C   0  0  0  0  0  0  0  0  0  0  0  0
    4.0734    0.9288   -0.3516 C   0  0  0  0  0  0  0  0  0  0  0  0
   -0.4638    0.0845    0.4373 C   0  0  0  0  0  0  0  0  0  0  0  0
    6.3727    1.2385    1.3279 O   0  0  0  0  0  0  0  0  0  0  0  0
    4.4694    3.2434    1.2881 O   0  0  0  0  0  0  0  0  0  0  0  0
    3.3138    0.3088    2.2333 Cl  0  0  0  0  0  0  0  0  0  0  0  0
   -0.0110   -1.3366    0.8250 C   0  0  1  0  0  0  0  0  0  0  0  0
   -1.9794    0.2354    0.3375 C   0  0  0  0  0  0  0  0  0  0  0  0
   -1.8172    2.7168    0.4114 C   0  0  0  0  0  0  0  0  0  0  0  0
    3.9744    0.8079   -1.7441 C   0  0  0  0  0  0  0  0  0  0  0  0
    5.2609    2.0695    0.3417 S   0  0  0  0  0  0  0  0  0  0  0  0
   -2.7992   -0.9169    0.1528 C   0  0  0  0  0  0  0  0  0  0  0  0
  1  8  1  0
  1 10  2  0
  1 14  1  0
  2  6  1  0
  2  7  1  0
  2 30  1  0
  3  4  1  0
  3  7  2  3
  5  8  1  0
  7 25  1  0
 25  8  1  6
  9 11  2  0
  9 12  1  0
  9 16  1  0
 10 20  1  0
 10 24  1  0
 11 15  1  0
 12 26  1  0
 12 27  2  0
 13 15  2  0
 13 27  1  0
 14 17  2  0
 16 19  2  0
 17 28  1  0
 18 29  1  0
 19 30  1  0
 20 28  2  0
 20 29  1  0
 21 25  1  0
 21 26  1  0
 22 29  1  0
 23 29  1  0
 26 30  2  0
M  END
