
     RDKit          3D

 35 40  0  0  0  0  0  0  0  0999 V2000
   21.4113   23.7482   20.9397 C   0  0  0  0  0  0  0  0  0  0  0  0
   21.7954   21.4402   19.1054 N   0  0  0  0  0  0  0  0  0  0  0  0
   21.2710   24.9813   21.4431 C   0  0  2  0  0  0  0  0  0  0  0  0
   23.2282   20.8081   20.8032 C   0  0  0  0  0  0  0  0  0  0  0  0
   21.3504   19.3362   20.4968 C   0  0  0  0  0  0  0  0  0  0  0  0
   24.7310   21.8082   19.1422 C   0  0  0  0  0  0  0  0  0  0  0  0
   23.9700   22.1999   18.1018 C   0  0  0  0  0  0  0  0  0  0  0  0
   20.5691   22.0056   19.3284 C   0  0  0  0  0  0  0  0  0  0  0  0
   26.6341   21.5321   20.3626 N   0  0  0  0  0  0  0  0  0  0  0  0
   19.1889   24.7838   22.5074 C   0  0  0  0  0  0  0  0  0  0  0  0
   20.0657   19.5954   20.7966 C   0  0  0  0  0  0  0  0  0  0  0  0
   19.9029   17.3970   21.6569 C   0  0  0  0  0  0  0  0  0  0  0  0
   21.7855   22.2594   17.0345 O   0  0  0  0  0  0  0  0  0  0  0  0
   25.9021   20.5313   22.4134 C   0  0  0  0  0  0  0  0  0  0  0  0
   24.6104   22.8945   16.9704 C   0  0  0  0  0  0  0  0  0  0  0  0
   18.6076   23.9467   21.5962 C   0  0  0  0  0  0  0  0  0  0  0  0
   21.1083   24.3603   23.7926 C   0  0  0  0  0  0  0  0  0  0  0  0
   26.7873   22.5568   18.2393 C   0  0  0  0  0  0  0  0  0  0  0  0
   22.9881   20.9124   21.9754 O   0  0  0  0  0  0  0  0  0  0  0  0
   25.6439   21.0683   21.0621 C   0  0  0  0  0  0  0  0  0  0  0  0
   22.3046   20.3249   19.8445 C   0  0  1  0  0  0  0  0  0  0  0  0
   20.3972   23.0228   20.3942 C   0  0  0  0  0  0  0  0  0  0  0  0
   26.1572   21.9717   19.2214 C   0  0  0  0  0  0  0  0  0  0  0  0
   21.1689   17.1410   21.3340 C   0  0  0  0  0  0  0  0  0  0  0  0
   19.3556   18.6224   21.3817 C   0  0  0  0  0  0  0  0  0  0  0  0
   21.9116   26.9277   22.4962 C   0  0  0  0  0  0  0  0  0  0  0  0
   22.4536   22.0004   18.0298 C   0  0  0  0  0  0  0  0  0  0  0  0
   24.4775   21.1987   20.3525 C   0  0  0  0  0  0  0  0  0  0  0  0
   22.4663   25.6997   21.8614 C   0  0  0  0  0  0  0  0  0  0  0  0
   20.6259   26.5253   22.9839 O   0  0  0  0  0  0  0  0  0  0  0  0
   20.4623   25.1082   22.6520 C   0  0  1  0  0  0  0  0  0  0  0  0
   21.9037   18.1265   20.7690 C   0  0  0  0  0  0  0  0  0  0  0  0
   19.1522   23.1716   20.7434 C   0  0  0  0  0  0  0  0  0  0  0  0
   17.1458   23.7660   21.4499 C   0  0  0  0  0  0  0  0  0  0  0  0
   25.9793   23.4272   17.3301 C   0  0  0  0  0  0  0  0  0  0  0  0
  1  3  1  0
  1 22  2  0
  2  8  1  0
  2 21  1  0
  2 27  1  0
  3 29  1  1
  3 31  1  0
  4 19  2  0
  4 21  1  0
  4 28  1  0
  5 11  1  0
 21  5  1  1
  5 32  2  0
  6  7  2  0
  6 23  1  0
  6 28  1  0
  7 15  1  0
  7 27  1  0
  8 22  1  0
  9 20  1  0
  9 23  2  0
 10 16  1  0
 10 31  1  0
 11 25  2  0
 12 24  2  0
 12 25  1  0
 13 27  2  0
 14 20  1  0
 15 35  1  0
 16 33  2  0
 16 34  1  0
 31 17  1  1
 18 23  1  0
 18 35  1  0
 20 28  2  0
 22 33  1  0
 24 32  1  0
 26 29  1  0
 26 30  1  0
 30 31  1  0
M  END
