
     RDKit          3D

 30 35  0  0  0  0  0  0  0  0999 V2000
   -5.1373    1.5377    2.1150 C   0  0  0  0  0  0  0  0  0  0  0  0
   -0.5230   -0.8953   -1.2335 C   0  0  2  0  0  0  0  0  0  0  0  0
    6.0843    0.7962    3.3633 O   0  0  0  0  0  0  0  0  0  0  0  0
    6.6842   -0.5565    1.0082 O   0  0  0  0  0  0  0  0  0  0  0  0
   -4.0638    1.4399    1.2241 C   0  0  0  0  0  0  0  0  0  0  0  0
    3.6246    2.2561   -1.0661 O   0  0  0  0  0  0  0  0  0  0  0  0
    2.9276    0.2455    0.1142 C   0  0  0  0  0  0  0  0  0  0  0  0
    4.8943    1.7052    0.8880 C   0  0  0  0  0  0  0  0  0  0  0  0
   -5.9977    0.4513    2.2969 C   0  0  0  0  0  0  0  0  0  0  0  0
   -1.6615    1.6550   -3.6905 C   0  0  0  0  0  0  0  0  0  0  0  0
   -0.0411    0.0558   -3.6955 C   0  0  0  0  0  0  0  0  0  0  0  0
    0.8499   -1.5183    0.7350 C   0  0  0  0  0  0  0  0  0  0  0  0
    3.0072   -0.6392    1.2270 C   0  0  0  0  0  0  0  0  0  0  0  0
   -0.6793    0.0973   -2.3584 C   0  0  0  0  0  0  0  0  0  0  0  0
    4.1150   -0.6886    2.0784 O   0  0  0  0  0  0  0  0  0  0  0  0
   -1.6310    0.9734   -2.3866 C   0  0  0  0  0  0  0  0  0  0  0  0
   -1.6356   -1.7093    0.9151 C   0  0  0  0  0  0  0  0  0  0  0  0
   -4.7172   -0.8337    0.6913 C   0  0  0  0  0  0  0  0  0  0  0  0
   -1.6757   -0.8584   -0.2977 N   0  0  0  0  0  0  0  0  0  0  0  0
    4.0792    1.1703   -0.2955 C   0  0  2  0  0  0  0  0  0  0  0  0
   -2.6663    1.0160   -1.4074 N   0  0  0  0  0  0  0  0  0  0  0  0
   -0.2852   -2.4314    1.0990 C   0  0  0  0  0  0  0  0  0  0  0  0
    5.4857    0.3190    1.8435 S   0  0  0  0  0  0  0  0  0  0  0  0
   -2.7124    0.1556   -0.4328 C   0  0  0  0  0  0  0  0  0  0  0  0
    1.7896    0.1608   -0.7129 C   0  0  0  0  0  0  0  0  0  0  0  0
    0.7460   -0.7302   -0.4152 C   0  0  0  0  0  0  0  0  0  0  0  0
   -3.8379    0.2474    0.5182 C   0  0  0  0  0  0  0  0  0  0  0  0
    1.9675   -1.4693    1.5022 N   0  0  0  0  0  0  0  0  0  0  0  0
   -0.6004    1.1132   -4.4572 O   0  0  0  0  0  0  0  0  0  0  0  0
   -5.7898   -0.7321    1.5829 C   0  0  0  0  0  0  0  0  0  0  0  0
  1  5  1  0
  1  9  2  0
  2 14  1  6
  2 19  1  0
  2 26  1  0
  3 23  1  0
  4 23  1  0
  5 27  2  0
 20  6  1  1
  7 13  1  0
  7 20  1  0
  7 25  2  0
  8 20  1  0
  8 23  1  0
  9 30  1  0
 10 16  1  0
 10 29  1  0
 11 14  1  0
 11 29  1  0
 12 22  1  0
 12 26  2  0
 12 28  1  0
 13 15  1  0
 13 28  2  0
 14 16  2  0
 15 23  1  0
 16 21  1  0
 17 19  1  0
 17 22  1  0
 18 27  1  0
 18 30  2  0
 19 24  1  0
 21 24  2  0
 24 27  1  0
 25 26  1  0
M  END
