
     RDKit          3D

 13 12  0  0  0  0  0  0  0  0999 V2000
    0.2308   -1.1587   -0.0574 C   0  0  0  0  0  0  0  0  0  0  0  0
   -3.8142    0.9228   -0.7212 C   0  0  1  0  0  0  0  0  0  0  0  0
   -2.6975   -0.1555   -0.6714 C   0  0  1  0  0  0  0  0  0  0  0  0
   -2.1330   -0.4202    0.7483 C   0  0  0  0  0  0  0  0  0  0  0  0
    3.4077   -0.4561    0.1815 C   0  0  0  0  0  0  0  0  0  0  0  0
    5.3413    1.1236   -0.3547 C   0  0  0  0  0  0  0  0  0  0  0  0
    0.9281    0.1401    0.3834 C   0  0  0  0  0  0  0  0  0  0  0  0
    4.7116   -0.2467   -0.6042 C   0  0  0  0  0  0  0  0  0  0  0  0
   -3.1358   -1.3466   -1.2791 O   0  0  0  0  0  0  0  0  0  0  0  0
    2.2450    0.3868   -0.3713 C   0  0  0  0  0  0  0  0  0  0  0  0
   -1.0179   -1.4848    0.7827 C   0  0  0  0  0  0  0  0  0  0  0  0
   -5.0342    0.6241    0.1673 C   0  0  0  0  0  0  0  0  0  0  0  0
   -3.2914    2.1984   -0.4417 O   0  0  0  0  0  0  0  0  0  0  0  0
  1  7  1  0
  1 11  1  0
  2  3  1  0
  2 12  1  1
  2 13  1  0
  3  4  1  0
  3  9  1  1
  4 11  1  0
  5  8  1  0
  5 10  1  0
  6  8  1  0
  7 10  1  0
M  END
