
     RDKit          3D

 37 39  0  0  0  0  0  0  0  0999 V2000
    8.2551   25.4019   44.2985 C   0  0  0  0  0  0  0  0  0  0  0  0
    2.6497   27.2380   51.8548 C   0  0  0  0  0  0  0  0  0  0  0  0
    5.3474   27.1550   52.1106 C   0  0  0  0  0  0  0  0  0  0  0  0
    5.9680   32.2967   54.7675 O   0  0  0  0  0  0  0  0  0  0  0  0
    7.2050   25.7610   45.1089 C   0  0  0  0  0  0  0  0  0  0  0  0
    2.5710   26.1677   52.7813 O   0  0  0  0  0  0  0  0  0  0  0  0
    6.1339   23.6993   44.6625 C   0  0  0  0  0  0  0  0  0  0  0  0
    4.2668   24.7028   46.5705 O   0  0  0  0  0  0  0  0  0  0  0  0
    6.3347   28.7880   53.3752 C   0  0  0  0  0  0  0  0  0  0  0  0
    7.4924   29.0845   52.5196 C   0  0  0  0  0  0  0  0  0  0  0  0
    1.0515   27.1401   45.2424 C   0  0  0  0  0  0  0  0  0  0  0  0
    7.4824   31.3682   53.2578 C   0  0  0  0  0  0  0  0  0  0  0  0
    0.1550   27.9998   49.6185 C   0  0  0  0  0  0  0  0  0  0  0  0
    4.6381   26.5662   45.4795 N   0  0  0  0  0  0  0  0  0  0  0  0
    6.3976   31.1947   54.0825 C   0  0  0  0  0  0  0  0  0  0  0  0
    1.3712   28.6634   49.9619 C   0  0  0  0  0  0  0  0  0  0  0  0
    3.1470   27.0069   50.4361 C   0  0  0  0  0  0  0  0  0  0  0  0
    3.9304   27.6690   52.4206 C   0  0  0  0  0  0  0  0  0  0  0  0
    3.6695   27.5050   46.2061 C   0  0  0  0  0  0  0  0  0  0  0  0
    8.0166   30.3305   52.4912 C   0  0  0  0  0  0  0  0  0  0  0  0
    8.2328   24.1717   43.7050 C   0  0  0  0  0  0  0  0  0  0  0  0
    0.6598   29.5048   49.0078 C   0  0  0  0  0  0  0  0  0  0  0  0
    4.7867   28.4031   47.8694 O   0  0  0  0  0  0  0  0  0  0  0  0
    3.8215   27.8904   47.4554 C   0  0  0  0  0  0  0  0  0  0  0  0
   -0.6699   28.9034   45.4625 C   0  0  0  0  0  0  0  0  0  0  0  0
    4.9459   32.2132   55.7202 C   0  0  0  0  0  0  0  0  0  0  0  0
    1.5902   29.5679   44.9424 C   0  0  0  0  0  0  0  0  0  0  0  0
    0.3132   29.9936   45.5693 C   0  0  0  0  0  0  0  0  0  0  0  0
    6.1159   24.8765   45.3532 C   0  0  0  0  0  0  0  0  0  0  0  0
   -0.2193   27.5409   45.8782 C   0  0  0  0  0  0  0  0  0  0  0  0
    2.7780   27.6497   48.2486 N   0  0  0  0  0  0  0  0  0  0  0  0
    4.8817   25.4138   45.9263 C   0  0  0  0  0  0  0  0  0  0  0  0
    2.7156   28.1073   49.6226 C   0  0  0  0  0  0  0  0  0  0  0  0
    5.8515   29.8674   54.1398 C   0  0  0  0  0  0  0  0  0  0  0  0
    1.9876   28.2674   45.3319 C   0  0  0  0  0  0  0  0  0  0  0  0
    7.1809   23.3368   43.8624 C   0  0  0  0  0  0  0  0  0  0  0  0
    5.8543   27.4984   53.4193 C   0  0  0  0  0  0  0  0  0  0  0  0
  1  5  1  0
  1 21  2  0
  2  6  1  0
  2 17  1  0
  2 18  1  0
  3 18  1  0
  3 37  1  0
  4 15  1  0
  4 26  1  0
  5 29  2  0
  7 29  1  0
  7 36  2  0
  8 32  2  0
  9 10  1  0
  9 34  2  0
  9 37  1  0
 10 20  2  0
 11 30  1  0
 11 35  1  0
 12 15  2  0
 12 20  1  0
 13 16  1  0
 13 22  1  0
 14 19  1  0
 14 32  1  0
 15 34  1  0
 16 22  1  0
 16 33  1  0
 17 33  1  0
 19 24  1  0
 21 36  1  0
 23 24  2  0
 24 31  1  0
 25 28  1  0
 25 30  1  0
 27 28  1  0
 27 35  1  0
 29 32  1  0
 31 33  1  0
M  END
$$$$
