
     RDKit          3D

 34 35  0  0  0  0  0  0  0  0999 V2000
    2.7877   26.2244   53.4479 O   0  0  0  0  0  0  0  0  0  0  0  0
    4.1403   32.3132   55.7715 C   0  0  0  0  0  0  0  0  0  0  0  0
    3.6846   28.4608   50.5452 C   0  0  0  0  0  0  0  0  0  0  0  0
    1.6673   29.7953   46.2504 C   0  0  0  0  0  0  0  0  0  0  0  0
    5.6259   32.0473   55.5267 C   0  0  0  0  0  0  0  0  0  0  0  0
    4.4738   27.4037   48.4290 C   0  0  0  0  0  0  0  0  0  0  0  0
    3.6841   28.3660   49.1424 N   0  0  0  0  0  0  0  0  0  0  0  0
    3.3889   27.4032   52.8724 C   0  0  0  0  0  0  0  0  0  0  0  0
    5.8808   29.5062   50.4198 O   0  0  0  0  0  0  0  0  0  0  0  0
    5.1521   26.5981   48.9439 O   0  0  0  0  0  0  0  0  0  0  0  0
    6.0806   22.9495   45.1995 O   0  0  0  0  0  0  0  0  0  0  0  0
    1.8446   29.0973   47.4892 C   0  0  0  0  0  0  0  0  0  0  0  0
    5.3754   26.5988   46.2719 C   0  0  0  0  0  0  0  0  0  0  0  0
    5.2404   28.8875   51.1186 C   0  0  0  0  0  0  0  0  0  0  0  0
   -0.0375   28.1312   45.4683 C   0  0  0  0  0  0  0  0  0  0  0  0
    0.7345   29.3196   45.2646 C   0  0  0  0  0  0  0  0  0  0  0  0
    2.9233   29.4927   48.4893 C   0  0  0  0  0  0  0  0  0  0  0  0
    6.3411   23.7495   42.7657 O   0  0  0  0  0  0  0  0  0  0  0  0
    0.1133   27.3805   46.6759 C   0  0  0  0  0  0  0  0  0  0  0  0
    4.8498   27.5476   53.2254 C   0  0  0  0  0  0  0  0  0  0  0  0
    4.2644   25.6194   45.3980 P   0  0  0  0  0  0  0  0  0  0  0  0
    1.9299   27.0184   51.0186 O   0  0  0  0  0  0  0  0  0  0  0  0
    7.8884   24.6122   44.6132 O   0  0  0  0  0  0  0  0  0  0  0  0
    5.5694   28.5556   52.4370 N   0  0  0  0  0  0  0  0  0  0  0  0
    6.4890   29.8452   54.3410 C   0  0  0  0  0  0  0  0  0  0  0  0
    4.5636   27.5335   46.9720 N   0  0  0  0  0  0  0  0  0  0  0  0
    6.4921   24.0801   44.2345 P   0  0  0  0  0  0  0  0  0  0  0  0
    3.2886   26.2527   44.5392 O   0  0  0  0  0  0  0  0  0  0  0  0
    5.6353   25.4761   44.5404 O   0  0  0  0  0  0  0  0  0  0  0  0
    6.7662   29.1829   52.9609 C   0  0  0  0  0  0  0  0  0  0  0  0
    3.3174   27.2327   51.3862 C   0  0  0  0  0  0  0  0  0  0  0  0
    1.0576   27.8442   47.6733 C   0  0  0  0  0  0  0  0  0  0  0  0
    6.0221   31.3221   54.1867 C   0  0  0  0  0  0  0  0  0  0  0  0
    3.6402   24.5239   46.3437 O   0  0  0  0  0  0  0  0  0  0  0  0
  1  8  1  0
  2  5  1  0
  3  7  1  0
  3 14  1  0
  3 31  1  0
  4 12  2  0
  4 16  1  0
  5 33  1  0
  6  7  1  0
  6 10  2  0
  6 26  1  0
  7 17  1  0
  8 20  1  0
  8 31  1  0
  9 14  2  0
 11 27  1  0
 12 17  1  0
 12 32  1  0
 13 21  1  0
 13 26  1  0
 14 24  1  0
 15 16  2  0
 15 19  1  0
 18 27  2  0
 19 32  2  0
 20 24  1  0
 21 28  2  0
 21 29  1  0
 21 34  1  0
 22 31  1  0
 23 27  1  0
 24 30  1  0
 25 30  1  0
 25 33  1  0
 27 29  1  0
M  END
$$$$
