
     RDKit          3D

 32 34  0  0  0  0  0  0  0  0999 V2000
    2.0570   28.2132   46.7880 C   0  0  0  0  0  0  0  0  0  0  0  0
    3.5202   28.6032   48.7493 N   0  0  0  0  0  0  0  0  0  0  0  0
    0.9713   27.4072   47.1053 C   0  0  0  0  0  0  0  0  0  0  0  0
    5.5533   28.8148   47.7504 O   0  0  0  0  0  0  0  0  0  0  0  0
    4.8871   28.9937   50.9475 S   0  0  0  0  0  0  0  0  0  0  0  0
    0.4965   26.4888   46.1824 C   0  0  0  0  0  0  0  0  0  0  0  0
    5.5793   25.1716   46.4819 C   0  0  0  0  0  0  0  0  0  0  0  0
    5.2969   29.3486   53.9871 C   0  0  0  0  0  0  0  0  0  0  0  0
    5.1303   31.2540   54.9894 N   0  0  0  0  0  0  0  0  0  0  0  0
    4.8072   26.5164   48.3828 C   0  0  0  0  0  0  0  0  0  0  0  0
    4.6977   32.3521   55.8381 C   0  0  0  0  0  0  0  0  0  0  0  0
    6.3331   22.7763   45.0019 O   0  0  0  0  0  0  0  0  0  0  0  0
    7.1257   24.5271   43.4480 C   0  0  0  0  0  0  0  0  0  0  0  0
    4.5211   24.5420   46.2495 O   0  0  0  0  0  0  0  0  0  0  0  0
    5.7023   26.0911   47.3879 N   0  0  0  0  0  0  0  0  0  0  0  0
    2.6834   26.3724   52.8922 O   0  0  0  0  0  0  0  0  0  0  0  0
    1.2086   27.5543   50.6800 O   0  0  0  0  0  0  0  0  0  0  0  0
    4.6497   30.0617   54.9386 N   0  0  0  0  0  0  0  0  0  0  0  0
    2.6618   28.1204   45.5471 C   0  0  0  0  0  0  0  0  0  0  0  0
    5.0468   27.9045   53.5361 C   0  0  0  0  0  0  0  0  0  0  0  0
    3.0150   27.5461   52.1943 C   0  0  0  0  0  0  0  0  0  0  0  0
    3.2766   28.7774   50.1520 C   0  0  0  0  0  0  0  0  0  0  0  0
    6.1143   31.3909   54.0612 N   0  0  0  0  0  0  0  0  0  0  0  0
    6.6521   24.9643   45.8411 N   0  0  0  0  0  0  0  0  0  0  0  0
    4.6841   28.0439   48.2599 C   0  0  0  0  0  0  0  0  0  0  0  0
    1.1165   26.4182   44.9533 C   0  0  0  0  0  0  0  0  0  0  0  0
    2.5735   29.2570   47.7804 C   0  0  0  0  0  0  0  0  0  0  0  0
    2.2027   27.1892   44.6166 C   0  0  0  0  0  0  0  0  0  0  0  0
    4.4844   27.7323   52.1323 C   0  0  0  0  0  0  0  0  0  0  0  0
    6.2231   30.1973   53.4561 C   0  0  0  0  0  0  0  0  0  0  0  0
    6.7301   23.9387   44.7570 C   0  0  0  0  0  0  0  0  0  0  0  0
    2.6063   27.6332   50.8038 C   0  0  0  0  0  0  0  0  0  0  0  0
  1  3  2  0
  1 19  1  0
  1 27  1  0
  2 22  1  0
  2 25  1  0
  2 27  1  0
  3  6  1  0
  4 25  2  0
  5 22  1  0
  5 29  1  0
  6 26  2  0
  7 14  2  0
  7 15  1  0
  7 24  1  0
  8 18  2  0
  8 20  1  0
  8 30  1  0
  9 11  1  0
  9 18  1  0
  9 23  1  0
 10 15  1  0
 10 25  1  0
 12 31  2  0
 13 31  1  0
 16 21  1  0
 17 32  1  0
 19 28  2  0
 20 29  1  0
 21 29  1  0
 21 32  1  0
 22 32  1  0
 23 30  2  0
 24 31  1  0
 26 28  1  0
M  END
$$$$
