
     RDKit          3D

 25 26  0  0  0  0  0  0  0  0999 V2000
   39.7895   45.5580   17.5978 C   0  0  0  0  0  0  0  0  0  0  0  0
   27.7986   40.2400   19.1392 C   0  0  0  0  0  0  0  0  0  0  0  0
   36.2445   43.1894   18.1652 C   0  0  0  0  0  0  0  0  0  0  0  0
   38.2601   45.5658   14.2511 C   0  0  0  0  0  0  0  0  0  0  0  0
   38.4583   44.0862   18.8198 N   0  0  0  0  0  0  0  0  0  0  0  0
   33.9947   41.8311   17.6556 C   0  0  0  0  0  0  0  0  0  0  0  0
   36.3449   43.9083   16.9827 C   0  0  0  0  0  0  0  0  0  0  0  0
   38.5015   44.7896   17.6016 C   0  0  0  0  0  0  0  0  0  0  0  0
   30.8914   39.9268   18.6713 C   0  0  0  0  0  0  0  0  0  0  0  0
   35.1549   42.3536   18.4223 O   0  0  0  0  0  0  0  0  0  0  0  0
   26.9539   37.4464   22.2926 C   0  0  0  0  0  0  0  0  0  0  0  0
   40.6418   45.3352   18.8223 C   0  0  0  0  0  0  0  0  0  0  0  0
   37.3188   43.2923   19.0694 C   0  0  0  0  0  0  0  0  0  0  0  0
   37.3278   45.4332   15.4363 C   0  0  0  0  0  0  0  0  0  0  0  0
   29.8334   38.9543   18.5354 C   0  0  0  0  0  0  0  0  0  0  0  0
   27.2289   38.3943   21.1819 C   0  0  0  0  0  0  0  0  0  0  0  0
   36.1475   45.7458   15.1149 O   0  0  0  0  0  0  0  0  0  0  0  0
   31.7736   40.7904   18.6208 C   0  0  0  0  0  0  0  0  0  0  0  0
   28.4150   38.3105   20.4583 C   0  0  0  0  0  0  0  0  0  0  0  0
   32.8160   41.6766   18.7835 C   0  0  0  0  0  0  0  0  0  0  0  0
   28.6712   39.2311   19.4540 C   0  0  0  0  0  0  0  0  0  0  0  0
   37.4758   44.6897   16.7088 C   0  0  0  0  0  0  0  0  0  0  0  0
   28.1148   41.2050   18.2724 F   0  0  0  0  0  0  0  0  0  0  0  0
   26.3035   39.4376   20.8430 C   0  0  0  0  0  0  0  0  0  0  0  0
   26.5863   40.3333   19.8137 C   0  0  0  0  0  0  0  0  0  0  0  0
  1  8  1  0
  1 12  1  0
  2 21  2  0
  2 23  1  0
  2 25  1  0
  3  7  2  0
  3 10  1  0
  3 13  1  0
  4 14  1  0
  5  8  1  0
  5 13  2  0
  6 10  1  0
  6 20  1  0
  7 22  1  0
  8 22  2  0
  9 15  1  0
  9 18  3  0
 11 16  1  0
 14 17  1  0
 14 22  1  0
 15 21  1  0
 16 19  2  0
 16 24  1  0
 18 20  1  0
 19 21  1  0
 24 25  2  0
M  END
$$$$
