
     RDKit          3D

 36 39  0  0  0  0  0  0  0  0999 V2000
    5.4188  -14.2855  -14.9218 C   0  0  0  0  0  0  0  0  0  0  0  0
    6.5762  -13.8763  -13.0554 C   0  0  0  0  0  0  0  0  0  0  0  0
    5.4504  -13.4120  -13.7504 C   0  0  0  0  0  0  0  0  0  0  0  0
    5.8811  -12.6834  -11.1934 C   0  0  0  0  0  0  0  0  0  0  0  0
    8.3711  -12.6202  -14.4701 P   0  0  0  0  0  0  0  0  0  0  0  0
    7.3150  -11.2972  -14.4857 O   0  0  0  0  0  0  0  0  0  0  0  0
    2.8816  -13.7744  -10.5264 O   0  0  0  0  0  0  0  0  0  0  0  0
    4.1235  -15.5222   -9.1933 O   0  0  0  0  0  0  0  0  0  0  0  0
   -1.7239  -15.3027  -11.9816 C   0  0  0  0  0  0  0  0  0  0  0  0
   -1.9634  -13.7529  -12.4173 C   0  0  0  0  0  0  0  0  0  0  0  0
    7.4932  -14.0880  -10.7565 O   0  0  0  0  0  0  0  0  0  0  0  0
    6.4053  -13.7411  -11.4994 C   0  0  0  0  0  0  0  0  0  0  0  0
    2.2476  -12.1482  -12.2680 C   0  0  0  0  0  0  0  0  0  0  0  0
    9.5217  -12.2490  -13.5247 O   0  0  0  0  0  0  0  0  0  0  0  0
    6.7019  -11.4431  -11.3290 O   0  0  0  0  0  0  0  0  0  0  0  0
    1.7633  -13.0929  -13.4913 C   0  0  0  0  0  0  0  0  0  0  0  0
    4.2424  -12.5932  -11.1339 C   0  0  0  0  0  0  0  0  0  0  0  0
    4.1784  -12.9923  -13.3511 O   0  0  0  0  0  0  0  0  0  0  0  0
    5.8622  -11.6464  -14.5376 C   0  0  0  0  0  0  0  0  0  0  0  0
    1.7345  -15.2201   -9.7001 O   0  0  0  0  0  0  0  0  0  0  0  0
    4.5978  -15.2539  -14.4120 O   0  0  0  0  0  0  0  0  0  0  0  0
    0.9310  -15.3205  -13.4615 O   0  0  0  0  0  0  0  0  0  0  0  0
   -0.7194  -13.2288  -13.1564 C   0  0  0  0  0  0  0  0  0  0  0  0
    7.7978  -13.5095  -13.6477 O   0  0  0  0  0  0  0  0  0  0  0  0
    1.6003  -12.0924  -14.5707 C   0  0  0  0  0  0  0  0  0  0  0  0
    2.6700  -11.5805  -15.2155 O   0  0  0  0  0  0  0  0  0  0  0  0
    8.4284  -13.1985  -15.7544 O   0  0  0  0  0  0  0  0  0  0  0  0
   -0.5306  -11.6670  -12.8265 C   0  0  0  0  0  0  0  0  0  0  0  0
   -1.5520  -11.0462  -13.3818 O   0  0  0  0  0  0  0  0  0  0  0  0
    0.8353  -11.1406  -13.5890 C   0  0  0  0  0  0  0  0  0  0  0  0
    1.6198  -10.8887  -12.4522 O   0  0  0  0  0  0  0  0  0  0  0  0
    3.1877  -14.9764  -10.3933 S   0  0  0  0  0  0  0  0  0  0  0  0
    6.8750  -15.1792  -13.4181 O   0  0  0  0  0  0  0  0  0  0  0  0
    0.6543  -14.0191  -12.9865 C   0  0  0  0  0  0  0  0  0  0  0  0
    3.8060  -12.4989  -12.0371 C   0  0  0  0  0  0  0  0  0  0  0  0
    3.5922  -15.9075  -11.6773 O   0  0  0  0  0  0  0  0  0  0  0  0
  1  3  1  0
  1 21  1  0
  2  3  1  0
  2 12  1  0
  2 24  1  0
  2 33  1  0
  3 18  1  0
  3 19  1  0
  4 12  1  0
  4 15  1  0
  4 17  1  0
  5  6  1  0
  5 14  2  0
  5 24  1  0
  5 27  1  0
  6 19  1  0
  7 17  1  0
  7 32  1  0
  8 32  1  0
  9 10  1  0
 10 23  1  0
 11 12  1  0
 13 16  1  0
 13 31  1  0
 13 35  1  0
 16 25  1  0
 16 34  1  0
 17 35  1  0
 18 35  1  0
 20 32  2  0
 22 34  1  0
 23 28  1  0
 23 34  1  0
 25 26  1  0
 25 30  1  0
 28 29  1  0
 28 30  1  0
 30 31  1  0
 32 36  1  0
M  END
$$$$
