
     RDKit          3D

 16 15  0  0  0  0  0  0  0  0999 V2000
    8.3080  -11.7314  -13.2126 O   0  0  0  0  0  0  0  0  0  0  0  0
    9.3509  -14.0333  -13.4291 O   0  0  0  0  0  0  0  0  0  0  0  0
    7.1479  -13.4924  -10.1826 O   0  0  0  0  0  0  0  0  0  0  0  0
    4.6930  -12.5378  -12.9174 C   0  0  0  0  0  0  0  0  0  0  0  0
    6.8335  -13.7335  -13.1622 O   0  0  0  0  0  0  0  0  0  0  0  0
    4.5367  -15.3997  -13.7183 O   0  0  0  0  0  0  0  0  0  0  0  0
    5.5797  -13.4397  -13.8382 C   0  0  0  0  0  0  0  0  0  0  0  0
    4.1755  -11.6604  -13.5155 O   0  0  0  0  0  0  0  0  0  0  0  0
    4.6613  -14.6803  -14.3777 C   0  0  0  0  0  0  0  0  0  0  0  0
    5.2993  -12.1875  -11.5318 C   0  0  0  0  0  0  0  0  0  0  0  0
    5.8952  -13.4522  -10.8842 C   0  0  0  0  0  0  0  0  0  0  0  0
    7.9024  -13.1744  -15.2583 O   0  0  0  0  0  0  0  0  0  0  0  0
    5.3464  -14.3200  -10.4937 O   0  0  0  0  0  0  0  0  0  0  0  0
    6.0839  -11.2883  -11.6082 O   0  0  0  0  0  0  0  0  0  0  0  0
    8.1289  -13.0891  -13.7680 P   0  0  0  0  0  0  0  0  0  0  0  0
    6.2386  -15.7247  -14.7326 O   0  0  0  0  0  0  0  0  0  0  0  0
  1 15  1  0
  2 15  1  0
  3 11  1  0
  4  7  1  0
  4  8  1  0
  4 10  1  0
  5  7  1  0
  5 15  1  0
  6  9  1  0
  7  9  1  0
  9 16  1  0
 10 11  1  0
 10 14  1  0
 11 13  2  0
 12 15  2  0
M  END
$$$$
