
     RDKit          3D

 12 12  0  0  0  0  0  0  0  0999 V2000
    4.5838  -13.3367  -13.0633 C   0  0  0  0  0  0  0  0  0  0  0  0
    5.6236  -11.2242  -12.2082 O   0  0  0  0  0  0  0  0  0  0  0  0
    6.1901  -13.0930  -11.1887 C   0  0  0  0  0  0  0  0  0  0  0  0
    5.5350  -14.4128  -12.9801 C   0  0  0  0  0  0  0  0  0  0  0  0
    5.5958  -15.4701  -13.6068 O   0  0  0  0  0  0  0  0  0  0  0  0
    6.8549  -12.5747  -10.2235 O   0  0  0  0  0  0  0  0  0  0  0  0
    3.5192  -14.3857  -12.7855 O   0  0  0  0  0  0  0  0  0  0  0  0
    8.0747  -13.6884  -12.7973 C   0  0  0  0  0  0  0  0  0  0  0  0
    6.7097  -14.1829  -12.4074 C   0  0  0  0  0  0  0  0  0  0  0  0
    9.0365  -13.6115  -12.5150 O   0  0  0  0  0  0  0  0  0  0  0  0
    5.1672  -12.3057  -11.9609 C   0  0  0  0  0  0  0  0  0  0  0  0
    7.8439  -13.8457  -14.2580 O   0  0  0  0  0  0  0  0  0  0  0  0
  1  4  1  0
  1  7  1  0
  1 11  1  0
  2 11  1  0
  3  6  1  0
  3  9  1  0
  3 11  1  0
  4  5  2  0
  4  9  1  0
  8  9  1  0
  8 10  2  0
  8 12  1  0
M  END
$$$$
