
     RDKit          3D

 63 66  0  0  0  0  0  0  0  0999 V2000
    6.6259  -14.9965  -13.6811 O   0  0  0  0  0  0  0  0  0  0  0  0
   -0.7116  -11.5790  -11.0646 C   0  0  0  0  0  0  0  0  0  0  0  0
    6.0849  -10.6220  -14.1066 O   0  0  0  0  0  0  0  0  0  0  0  0
    4.9806  -10.5800  -22.6775 C   0  0  0  0  0  0  0  0  0  0  0  0
    6.9975  -12.1484  -15.7273 C   0  0  0  0  0  0  0  0  0  0  0  0
    3.5665  -16.0678   -9.9817 N   0  0  0  0  0  0  0  0  0  0  0  0
    6.3324   -9.2758  -21.1362 C   0  0  0  0  0  0  0  0  0  0  0  0
   -0.6019   -9.4208  -12.2625 C   0  0  0  0  0  0  0  0  0  0  0  0
    6.2319  -12.7933  -10.8042 C   0  0  0  0  0  0  0  0  0  0  0  0
    5.0111  -13.4193  -10.3803 O   0  0  0  0  0  0  0  0  0  0  0  0
    0.7666  -13.9020  -10.1627 N   0  0  0  0  0  0  0  0  0  0  0  0
    8.7534  -13.7107  -16.9759 O   0  0  0  0  0  0  0  0  0  0  0  0
   -1.2470  -10.1535  -11.2104 C   0  0  0  0  0  0  0  0  0  0  0  0
    7.0296  -11.5174  -21.7454 C   0  0  0  0  0  0  0  0  0  0  0  0
    2.7074  -14.1618  -14.1582 C   0  0  0  0  0  0  0  0  0  0  0  0
    3.7394  -11.3457  -14.5395 O   0  0  0  0  0  0  0  0  0  0  0  0
    7.2017  -13.4998  -16.8328 P   0  0  0  0  0  0  0  0  0  0  0  0
    0.1445   -5.5809  -15.5778 N   0  0  0  0  0  0  0  0  0  0  0  0
    2.0660  -13.0193  -14.8350 C   0  0  0  0  0  0  0  0  0  0  0  0
    0.9902  -12.4644  -14.1992 O   0  0  0  0  0  0  0  0  0  0  0  0
    1.1084   -6.3900  -13.4533 C   0  0  0  0  0  0  0  0  0  0  0  0
    0.6902  -11.4360  -10.8064 O   0  0  0  0  0  0  0  0  0  0  0  0
    5.1150  -11.0366  -15.1099 P   0  0  0  0  0  0  0  0  0  0  0  0
    1.5571  -16.8070   -8.8504 C   0  0  0  0  0  0  0  0  0  0  0  0
    0.8514  -16.0751   -9.0476 N   0  0  0  0  0  0  0  0  0  0  0  0
    6.5871  -14.8098  -16.4185 O   0  0  0  0  0  0  0  0  0  0  0  0
    1.6981  -13.2671  -10.7569 C   0  0  0  0  0  0  0  0  0  0  0  0
    5.0657  -10.6207  -16.5735 O   0  0  0  0  0  0  0  0  0  0  0  0
    4.6751  -14.2636  -12.6694 C   0  0  0  0  0  0  0  0  0  0  0  0
   -1.0489   -5.7599  -16.4269 C   0  0  0  0  0  0  0  0  0  0  0  0
    2.1129  -15.2904  -13.8175 O   0  0  0  0  0  0  0  0  0  0  0  0
   -0.2317  -10.1734  -13.4874 O   0  0  0  0  0  0  0  0  0  0  0  0
    0.0996   -6.2885  -14.5663 N   0  0  0  0  0  0  0  0  0  0  0  0
    2.6635  -11.9226  -15.2605 C   0  0  0  0  0  0  0  0  0  0  0  0
   -1.4263   -7.0056  -14.5212 C   0  0  0  0  0  0  0  0  0  0  0  0
   -2.5365  -10.1506  -11.7376 O   0  0  0  0  0  0  0  0  0  0  0  0
    6.9344  -12.5894   -9.5947 O   0  0  0  0  0  0  0  0  0  0  0  0
    5.2081   -9.3966  -21.9492 C   0  0  0  0  0  0  0  0  0  0  0  0
    8.0202  -10.8089  -17.3822 O   0  0  0  0  0  0  0  0  0  0  0  0
   -1.6699   -5.1491  -17.5986 N   0  0  0  0  0  0  0  0  0  0  0  0
    6.0962  -13.9278  -12.9283 C   0  0  0  0  0  0  0  0  0  0  0  0
    0.7992   -9.7433  -12.5914 C   0  0  0  0  0  0  0  0  0  0  0  0
    7.2052  -10.3222  -21.0292 C   0  0  0  0  0  0  0  0  0  0  0  0
    7.8983   -9.4518  -18.9879 O   0  0  0  0  0  0  0  0  0  0  0  0
    4.0517  -13.9796  -13.8587 O   0  0  0  0  0  0  0  0  0  0  0  0
   -3.3777   -6.8422  -16.1413 C   0  0  0  0  0  0  0  0  0  0  0  0
   -1.9584   -6.6312  -15.6330 C   0  0  0  0  0  0  0  0  0  0  0  0
    8.2654  -10.1735  -20.1363 C   0  0  0  0  0  0  0  0  0  0  0  0
    2.7617  -10.1781  -11.1742 C   0  0  0  0  0  0  0  0  0  0  0  0
    8.6087   -9.6441  -17.8628 C   0  0  0  0  0  0  0  0  0  0  0  0
    2.9304  -13.9744  -10.8762 N   0  0  0  0  0  0  0  0  0  0  0  0
    1.5259  -10.8026  -11.8134 C   0  0  0  0  0  0  0  0  0  0  0  0
    2.6760  -15.1840  -10.3787 C   0  0  0  0  0  0  0  0  0  0  0  0
    6.9172  -13.6991  -11.7755 C   0  0  0  0  0  0  0  0  0  0  0  0
    3.6747  -18.0542   -8.9002 N   0  0  0  0  0  0  0  0  0  0  0  0
    8.2208  -13.1624  -12.1860 O   0  0  0  0  0  0  0  0  0  0  0  0
    2.1258   -7.3747  -13.5494 O   0  0  0  0  0  0  0  0  0  0  0  0
    5.8920  -11.6515  -22.5660 C   0  0  0  0  0  0  0  0  0  0  0  0
    4.1114  -13.5702  -11.4477 C   0  0  0  0  0  0  0  0  0  0  0  0
    7.9915  -11.1348  -15.9967 C   0  0  0  0  0  0  0  0  0  0  0  0
    6.6298  -12.9443  -18.2578 O   0  0  0  0  0  0  0  0  0  0  0  0
    2.9036  -16.9462   -9.2168 C   0  0  0  0  0  0  0  0  0  0  0  0
    1.4011  -15.0444   -9.8387 C   0  0  0  0  0  0  0  0  0  0  0  0
  1 41  1  0
  2 13  1  0
  2 22  1  0
  3 23  1  0
  4 38  2  0
  4 58  1  0
  5 17  1  0
  5 60  1  0
  6 53  1  0
  6 62  2  0
  7 38  1  0
  7 43  2  0
  8 13  1  0
  8 32  1  0
  8 42  1  0
  9 10  1  0
  9 37  1  0
  9 54  1  0
 10 59  1  0
 11 27  2  0
 11 63  1  0
 12 17  2  0
 13 36  1  0
 14 43  1  0
 14 58  2  0
 15 19  1  0
 15 31  2  0
 15 45  1  0
 16 23  1  0
 16 34  1  0
 17 26  1  0
 17 61  1  0
 18 30  2  0
 18 33  1  0
 19 20  1  0
 19 34  1  0
 21 33  1  0
 21 57  1  0
 22 52  1  0
 23 28  2  0
 24 25  2  0
 24 62  1  0
 25 63  1  0
 27 51  1  0
 29 41  1  0
 29 45  1  0
 29 59  1  0
 30 40  1  0
 30 47  1  0
 32 42  1  0
 33 35  1  0
 35 47  2  0
 39 50  1  0
 39 60  1  0
 41 54  1  0
 42 52  1  0
 43 48  1  0
 44 48  1  0
 44 50  1  0
 46 47  1  0
 49 52  1  0
 51 53  1  0
 51 59  1  0
 53 63  2  0
 54 56  1  0
 55 62  1  0
M  END
$$$$
