
     RDKit          3D

 16 16  0  0  0  0  0  0  0  0999 V2000
  -14.9226   32.0192    2.4864 O   0  0  0  0  0  0  0  0  0  0  0  0
  -16.8170   33.4774    4.5932 C   0  0  0  0  0  0  0  0  0  0  0  0
  -16.6822   33.5280    3.1230 C   0  0  0  0  0  0  0  0  0  0  0  0
  -20.9577   36.5620    6.8318 C   0  0  0  0  0  0  0  0  0  0  0  0
  -20.8018   34.6810    5.0860 N   0  0  0  0  0  0  0  0  0  0  0  0
  -21.9322   34.9567    5.6530 C   0  0  0  0  0  0  0  0  0  0  0  0
  -23.3675   35.8806    7.2517 C   0  0  0  0  0  0  0  0  0  0  0  0
  -19.8404   35.4822    5.3451 C   0  0  0  0  0  0  0  0  0  0  0  0
  -18.1753   35.1487    3.8242 N   0  0  0  0  0  0  0  0  0  0  0  0
  -17.7761   34.5532    5.0603 C   0  0  0  0  0  0  0  0  0  0  0  0
  -17.3058   34.7800    2.6920 C   0  0  0  0  0  0  0  0  0  0  0  0
  -23.8426   36.8690    6.3475 C   0  0  0  0  0  0  0  0  0  0  0  0
  -22.0202   35.7724    6.5858 C   0  0  0  0  0  0  0  0  0  0  0  0
  -19.8117   36.5063    6.0793 C   0  0  0  0  0  0  0  0  0  0  0  0
  -14.4264   34.2609    2.0589 N   0  0  0  0  0  0  0  0  0  0  0  0
  -15.3250   33.2860    2.5741 C   0  0  0  0  0  0  0  0  0  0  0  0
  1 16  2  0
  2  3  1  0
  2 10  1  0
  3 11  1  0
  3 16  1  0
  4 13  2  0
  4 14  1  0
  5  6  2  0
  5  8  1  0
  6 13  1  0
  7 12  1  0
  7 13  1  0
  8 14  2  0
  9 10  1  0
  9 11  1  0
 15 16  1  0
M  END
$$$$
