
     RDKit          3D

 13 15  0  0  0  0  0  0  0  0999 V2000
   44.2038   37.1932   79.9884 C   0  0  0  0  0  0  0  0  0  0  0  0
   44.5959   38.1230   80.7798 C   0  0  0  0  0  0  0  0  0  0  0  0
   46.4082   36.9701   81.9726 C   0  0  0  0  0  0  0  0  0  0  0  0
   43.4849   40.1810   80.1714 C   0  0  0  0  0  0  0  0  0  0  0  0
   42.7900   41.4161   81.5361 C   0  0  0  0  0  0  0  0  0  0  0  0
   43.6669   39.1045   81.3241 C   0  0  0  0  0  0  0  0  0  0  0  0
   45.5897   38.0389   81.9851 C   0  0  0  0  0  0  0  0  0  0  0  0
   43.8514   41.4701   80.3148 C   0  0  0  0  0  0  0  0  0  0  0  0
   44.2926   37.9306   80.9985 C   0  0  0  0  0  0  0  0  0  0  0  0
   43.4041   38.9949   81.8565 C   0  0  0  0  0  0  0  0  0  0  0  0
   44.8670   40.4026   80.7607 C   0  0  0  0  0  0  0  0  0  0  0  0
   46.1954   35.7144   81.4039 O   0  0  0  0  0  0  0  0  0  0  0  0
   46.2694   37.3994   83.4120 C   0  0  0  0  0  0  0  0  0  0  0  0
  1  9  1  0
  2  7  1  0
  2  9  1  0
  3  7  1  0
  3 12  1  0
  3 13  1  0
  4  6  1  0
  4  8  1  0
  5  8  1  0
  6  9  1  0
  6 10  1  0
  6 11  1  0
  7  9  1  0
  7 13  1  0
  8 11  1  0
M  END
$$$$
