
     RDKit          3D

 34 37  0  0  0  0  0  0  0  0999 V2000
    0.9936    0.3029   42.4735 C   0  0  0  0  0  0  0  0  0  0  0  0
    1.8166    1.3200   44.7432 C   0  0  0  0  0  0  0  0  0  0  0  0
    2.0613   -0.8047   50.8204 C   0  0  0  0  0  0  0  0  0  0  0  0
    2.2575    0.2924   39.0367 O   0  0  0  0  0  0  0  0  0  0  0  0
    4.8720    2.4685   36.7041 N   0  0  0  0  0  0  0  0  0  0  0  0
    5.2854    0.6232   40.6865 N   0  0  0  0  0  0  0  0  0  0  0  0
    2.9464    0.9068   36.8704 C   0  0  0  0  0  0  0  0  0  0  0  0
    2.0189   -1.5574   49.6768 C   0  0  0  0  0  0  0  0  0  0  0  0
    1.0778    0.0590   41.1142 C   0  0  0  0  0  0  0  0  0  0  0  0
    2.5705   -2.0219   52.9522 N   0  0  0  0  0  0  0  0  0  0  0  0
    1.3806    0.4199   48.4665 C   0  0  0  0  0  0  0  0  0  0  0  0
    3.1361    1.0000   38.2016 C   0  0  0  0  0  0  0  0  0  0  0  0
    4.0050    2.2224   43.1007 O   0  0  0  0  0  0  0  0  0  0  0  0
    2.3816    3.5675   49.4890 C   0  0  0  0  0  0  0  0  0  0  0  0
    1.7608    0.5635   50.8395 C   0  0  0  0  0  0  0  0  0  0  0  0
    3.9069    1.7813   36.1200 C   0  0  0  0  0  0  0  0  0  0  0  0
    1.9452    1.0101   43.2230 C   0  0  0  0  0  0  0  0  0  0  0  0
    1.9169    0.1328   36.2848 F   0  0  0  0  0  0  0  0  0  0  0  0
   -0.2509   -0.2277   43.0309 C   0  0  0  0  0  0  0  0  0  0  0  0
    0.9754    0.9597   47.1367 C   0  0  0  0  0  0  0  0  0  0  0  0
    1.4926    0.4084   45.9544 N   0  0  0  0  0  0  0  0  0  0  0  0
    5.0460    2.4510   38.0336 C   0  0  0  0  0  0  0  0  0  0  0  0
    4.2276    1.6927   38.8382 C   0  0  0  0  0  0  0  0  0  0  0  0
    1.1094    2.6737   49.7161 C   0  0  0  0  0  0  0  0  0  0  0  0
    4.3869    1.6261   40.3295 C   0  0  0  0  0  0  0  0  0  0  0  0
    1.4591    1.1666   49.6550 C   0  0  0  0  0  0  0  0  0  0  0  0
    2.1942    0.4856   40.4176 C   0  0  0  0  0  0  0  0  0  0  0  0
    3.9549    1.9398   34.6484 C   0  0  0  0  0  0  0  0  0  0  0  0
    3.0961    1.4094   42.4813 C   0  0  0  0  0  0  0  0  0  0  0  0
    2.0685    2.5298   45.0556 O   0  0  0  0  0  0  0  0  0  0  0  0
    1.7053   -0.9447   48.5014 C   0  0  0  0  0  0  0  0  0  0  0  0
    2.3517   -1.4903   52.0390 C   0  0  0  0  0  0  0  0  0  0  0  0
    0.1727    1.8922   47.1035 O   0  0  0  0  0  0  0  0  0  0  0  0
    3.2230    1.1188   41.0574 C   0  0  0  0  0  0  0  0  0  0  0  0
  1  9  2  0
  1 17  1  0
  1 19  1  0
  2 17  1  0
  2 21  1  0
  2 30  2  0
  3  8  1  0
  3 15  2  0
  3 32  1  0
  4 12  1  0
  4 27  1  0
  5 16  1  0
  5 22  2  0
  6 25  1  0
  7 12  1  0
  7 16  2  0
  7 18  1  0
  8 31  2  0
  9 27  1  0
 10 32  3  0
 11 20  1  0
 11 26  2  0
 11 31  1  0
 12 23  2  0
 13 29  1  0
 14 24  1  0
 15 26  1  0
 16 28  1  0
 17 29  2  0
 20 21  1  0
 20 33  2  0
 22 23  1  0
 23 25  1  0
 24 26  1  0
 25 34  1  0
 27 34  2  0
 29 34  1  0
M  END
$$$$
