
     RDKit          3D

 33 35  0  0  0  0  0  0  0  0999 V2000
    3.7692    1.7484   36.8905 C   0  0  0  0  0  0  0  0  0  0  0  0
   -0.1442   -0.8037   42.8891 C   0  0  0  0  0  0  0  0  0  0  0  0
    2.6024   -1.6572   51.5227 C   0  0  0  0  0  0  0  0  0  0  0  0
    1.7313    2.1175   49.9547 C   0  0  0  0  0  0  0  0  0  0  0  0
    2.7976    2.7136   46.2683 N   0  0  0  0  0  0  0  0  0  0  0  0
    0.1729   -0.7683   41.5896 C   0  0  0  0  0  0  0  0  0  0  0  0
    1.8308    1.8178   45.5989 C   0  0  0  0  0  0  0  0  0  0  0  0
    6.0278    1.2802   36.4763 N   0  0  0  0  0  0  0  0  0  0  0  0
    0.8869    1.5942   50.9159 C   0  0  0  0  0  0  0  0  0  0  0  0
    4.1858    1.1719   40.8350 C   0  0  0  0  0  0  0  0  0  0  0  0
    5.0861    1.3691   38.6068 N   0  0  0  0  0  0  0  0  0  0  0  0
    2.6919    1.8405   37.5919 N   0  0  0  0  0  0  0  0  0  0  0  0
    5.5211    1.8112   41.2109 C   0  0  0  0  0  0  0  0  0  0  0  0
    3.3574    3.2771   34.8761 C   0  0  0  0  0  0  0  0  0  0  0  0
    2.8965    3.1658   47.6888 C   0  0  0  0  0  0  0  0  0  0  0  0
    4.0269    1.4266   39.3763 C   0  0  0  0  0  0  0  0  0  0  0  0
    1.1324    0.3813   51.4467 C   0  0  0  0  0  0  0  0  0  0  0  0
    3.0555    1.5161   41.8302 C   0  0  0  0  0  0  0  0  0  0  0  0
    3.6370    2.0081   48.3831 C   0  0  0  0  0  0  0  0  0  0  0  0
    1.1679   -0.0215   41.1911 C   0  0  0  0  0  0  0  0  0  0  0  0
    0.5584   -0.0261   43.7769 C   0  0  0  0  0  0  0  0  0  0  0  0
    1.5878    0.7647   43.4237 C   0  0  0  0  0  0  0  0  0  0  0  0
    2.9023    0.8973   34.8289 O   0  0  0  0  0  0  0  0  0  0  0  0
    1.9568    0.8416   42.1570 C   0  0  0  0  0  0  0  0  0  0  0  0
    3.6649    1.9298   35.4062 C   0  0  0  0  0  0  0  0  0  0  0  0
    2.2548    1.6117   44.3255 N   0  0  0  0  0  0  0  0  0  0  0  0
    3.1654    0.1243   49.9244 C   0  0  0  0  0  0  0  0  0  0  0  0
    2.9024   -2.7206   51.9202 N   0  0  0  0  0  0  0  0  0  0  0  0
    2.8143    1.6458   38.8608 C   0  0  0  0  0  0  0  0  0  0  0  0
    4.9485    1.4705   37.3242 C   0  0  0  0  0  0  0  0  0  0  0  0
    2.8263    1.4031   49.4415 C   0  0  0  0  0  0  0  0  0  0  0  0
    0.8412    1.3482   46.1315 O   0  0  0  0  0  0  0  0  0  0  0  0
    2.3308   -0.4204   50.9642 C   0  0  0  0  0  0  0  0  0  0  0  0
  1 12  1  0
  1 25  1  0
  1 30  2  0
  2  6  2  0
  2 21  1  0
  3 28  3  0
  3 33  1  0
  4  9  1  0
  4 31  2  0
  5  7  1  0
  5 15  1  0
  6 20  1  0
  7 26  1  0
  7 32  2  0
  8 30  1  0
  9 17  2  0
 10 13  1  0
 10 16  1  0
 10 18  1  0
 11 16  2  0
 11 30  1  0
 12 29  2  0
 14 25  1  0
 15 19  1  0
 16 29  1  0
 17 33  1  0
 18 24  1  0
 19 31  1  0
 20 24  2  0
 21 22  2  0
 22 24  1  0
 22 26  1  0
 23 25  1  0
 27 31  1  0
 27 33  2  0
M  END
$$$$
