
     RDKit          3D

 22 26  0  0  0  0  0  0  0  0999 V2000
   94.7449   72.0073   -6.7976 C   0  0  0  0  0  0  0  0  0  0  0  0
   91.6673   67.9760   -3.7651 C   0  0  0  0  0  0  0  0  0  0  0  0
   92.0397   69.0954   -2.1599 C   0  0  0  0  0  0  0  0  0  0  0  0
   90.5405   68.7503   -1.6829 C   0  0  0  0  0  0  0  0  0  0  0  0
   92.1148   71.7798   -5.5143 C   0  0  0  0  0  0  0  0  0  0  0  0
   95.8250   69.5497   -6.4135 C   0  0  0  0  0  0  0  0  0  0  0  0
   94.2419   69.5776   -3.7913 C   0  0  0  0  0  0  0  0  0  0  0  0
   92.3543   73.1355   -5.4226 O   0  0  0  0  0  0  0  0  0  0  0  0
   95.6559   70.0053   -3.8814 C   0  0  0  0  0  0  0  0  0  0  0  0
   91.0681   68.5439   -4.8142 C   0  0  0  0  0  0  0  0  0  0  0  0
   89.5817   69.8016   -4.2696 C   0  0  0  0  0  0  0  0  0  0  0  0
   96.2352   70.1635   -7.6892 C   0  0  0  0  0  0  0  0  0  0  0  0
   95.0567   71.2133   -8.0989 C   0  0  0  0  0  0  0  0  0  0  0  0
   91.0602   69.0767   -3.6023 C   0  0  0  0  0  0  0  0  0  0  0  0
   88.7837   69.1423   -3.4276 C   0  0  0  0  0  0  0  0  0  0  0  0
   95.5587   70.5558   -5.3034 C   0  0  0  0  0  0  0  0  0  0  0  0
   91.9855   69.6341   -3.4999 C   0  0  0  0  0  0  0  0  0  0  0  0
   94.4500   71.4511   -5.5759 N   0  0  0  0  0  0  0  0  0  0  0  0
   89.5924   66.7933   -3.0064 C   0  0  0  0  0  0  0  0  0  0  0  0
   93.2566   70.2886   -4.0142 C   0  0  0  0  0  0  0  0  0  0  0  0
   90.2823   68.2135   -3.0319 C   0  0  0  0  0  0  0  0  0  0  0  0
   93.1500   71.0689   -5.2965 C   0  0  0  0  0  0  0  0  0  0  0  0
  1 13  1  0
  1 18  1  0
  2 10  1  0
  2 14  1  0
  3  4  1  0
  3 17  1  0
  4 21  1  0
  5  8  1  0
  5 22  1  0
  6 12  1  0
  6 16  1  0
  7  9  1  0
  7 20  1  0
  9 16  1  0
 10 14  1  0
 11 14  1  0
 11 15  1  0
 12 13  1  0
 14 17  1  0
 14 21  1  0
 15 21  1  0
 16 18  1  0
 17 20  1  0
 18 22  1  0
 19 21  1  0
 20 22  1  0
M  END
$$$$
