
     RDKit          3D

 32 35  0  0  0  0  0  0  0  0999 V2000
   31.4417   53.0286   37.2584 C   0  0  0  0  0  0  0  0  0  0  0  0
   30.4344   55.3949   36.2377 C   0  0  0  0  0  0  0  0  0  0  0  0
   33.6797   59.6933   34.2169 C   0  0  0  0  0  0  0  0  0  0  0  0
   35.4271   55.1973   34.0961 C   0  0  0  0  0  0  0  0  0  0  0  0
   34.6048   50.9392   31.2456 C   0  0  0  0  0  0  0  0  0  0  0  0
   30.1693   53.4378   37.5913 C   0  0  0  0  0  0  0  0  0  0  0  0
   32.5328   55.6870   34.9382 N   0  0  0  0  0  0  0  0  0  0  0  0
   33.5840   50.3015   32.0949 C   0  0  0  0  0  0  0  0  0  0  0  0
   36.1623   54.0436   32.1131 C   0  0  0  0  0  0  0  0  0  0  0  0
   34.2249   60.8083   33.8070 N   0  0  0  0  0  0  0  0  0  0  0  0
   38.4316   51.1817   30.8648 C   0  0  0  0  0  0  0  0  0  0  0  0
   32.8911   56.9771   34.8323 C   0  0  0  0  0  0  0  0  0  0  0  0
   39.8976   51.1798   30.7967 C   0  0  0  0  0  0  0  0  0  0  0  0
   32.2077   53.8005   36.4085 C   0  0  0  0  0  0  0  0  0  0  0  0
   32.1805   58.0572   35.3660 C   0  0  0  0  0  0  0  0  0  0  0  0
   34.7946   56.1337   33.2984 C   0  0  0  0  0  0  0  0  0  0  0  0
   35.5304   55.0149   31.3301 C   0  0  0  0  0  0  0  0  0  0  0  0
   35.4559   51.7539   31.9465 N   0  0  0  0  0  0  0  0  0  0  0  0
   34.8559   56.0801   31.9193 C   0  0  0  0  0  0  0  0  0  0  0  0
   36.1027   54.1525   33.5091 C   0  0  0  0  0  0  0  0  0  0  0  0
   36.4461   52.6889   31.4067 C   0  0  0  0  0  0  0  0  0  0  0  0
   34.0662   57.2827   33.9368 C   0  0  0  0  0  0  0  0  0  0  0  0
   35.4666   59.2061   32.8547 C   0  0  0  0  0  0  0  0  0  0  0  0
   35.3054   60.5247   32.9657 N   0  0  0  0  0  0  0  0  0  0  0  0
   34.4493   58.6338   33.6484 C   0  0  0  0  0  0  0  0  0  0  0  0
   31.7156   54.9915   35.9000 C   0  0  0  0  0  0  0  0  0  0  0  0
   29.6629   54.6116   37.0929 C   0  0  0  0  0  0  0  0  0  0  0  0
   31.8555   60.4596   35.5887 C   0  0  0  0  0  0  0  0  0  0  0  0
   37.8300   52.2102   31.7934 C   0  0  0  0  0  0  0  0  0  0  0  0
   28.0381   55.0755   37.5342 Cl  0  0  0  0  0  0  0  0  0  0  0  0
   34.7380   50.6887   30.0415 O   0  0  0  0  0  0  0  0  0  0  0  0
   32.6159   59.3949   35.0526 C   0  0  0  0  0  0  0  0  0  0  0  0
  1  6  2  0
  1 14  1  0
  2 26  1  0
  2 27  2  0
  3 10  1  0
  3 25  1  0
  3 32  2  0
  4 16  1  0
  4 20  2  0
  5  8  1  0
  5 18  1  0
  5 31  2  0
  6 27  1  0
  7 12  1  0
  7 26  1  0
  9 17  2  0
  9 20  1  0
  9 21  1  0
 10 24  1  0
 11 13  1  0
 11 29  1  0
 12 15  2  0
 12 22  1  0
 14 26  2  0
 15 32  1  0
 16 19  2  0
 16 22  1  0
 17 19  1  0
 18 21  1  0
 21 29  1  0
 22 25  2  0
 23 24  2  0
 23 25  1  0
 27 30  1  0
 28 32  1  0
M  END
$$$$
