
     RDKit          3D

 30 34  0  0  0  0  0  0  0  0999 V2000
   31.4414   32.0739   -7.3651 O   0  0  0  0  0  0  0  0  0  0  0  0
   34.3482   21.0268    1.6388 C   0  0  0  0  0  0  0  0  0  0  0  0
   33.3664   28.8851    2.0345 C   0  0  0  0  0  0  0  0  0  0  0  0
   33.1745   27.8593   -0.4992 C   0  0  0  0  0  0  0  0  0  0  0  0
   32.8158   26.9220   -2.7124 C   0  0  0  0  0  0  0  0  0  0  0  0
   33.9681   24.0643   -0.3960 C   0  0  0  0  0  0  0  0  0  0  0  0
   32.5484   30.0213   -6.2176 C   0  0  0  0  0  0  0  0  0  0  0  0
   35.0886   22.1428   -0.4406 N   0  0  0  0  0  0  0  0  0  0  0  0
   32.6186   31.1262    1.1016 C   0  0  0  0  0  0  0  0  0  0  0  0
   33.0576   30.3641    2.2947 C   0  0  0  0  0  0  0  0  0  0  0  0
   31.9772   31.3961   -8.5156 C   0  0  0  0  0  0  0  0  0  0  0  0
   32.5693   29.5275   -2.3529 C   0  0  0  0  0  0  0  0  0  0  0  0
   31.6645   34.3482   -4.7642 C   0  0  0  0  0  0  0  0  0  0  0  0
   33.5308   26.5924    0.0051 C   0  0  0  0  0  0  0  0  0  0  0  0
   34.3277   22.1616    0.6918 C   0  0  0  0  0  0  0  0  0  0  0  0
   33.5367   25.4458   -0.8438 C   0  0  0  0  0  0  0  0  0  0  0  0
   34.8404   23.3033   -1.0532 O   0  0  0  0  0  0  0  0  0  0  0  0
   31.4490   32.0035   -5.0408 C   0  0  0  0  0  0  0  0  0  0  0  0
   31.8657   31.3052   -6.2969 C   0  0  0  0  0  0  0  0  0  0  0  0
   34.7766   28.3251    2.2984 C   0  0  0  0  0  0  0  0  0  0  0  0
   30.8634   33.2706   -5.2884 O   0  0  0  0  0  0  0  0  0  0  0  0
   31.6886   31.4063   -3.7619 C   0  0  0  0  0  0  0  0  0  0  0  0
   32.8469   28.0557   -1.8517 C   0  0  0  0  0  0  0  0  0  0  0  0
   32.5001   30.4032   -1.3203 N   0  0  0  0  0  0  0  0  0  0  0  0
   33.0933   28.9859    0.4467 C   0  0  0  0  0  0  0  0  0  0  0  0
   33.1374   25.6457   -2.2003 C   0  0  0  0  0  0  0  0  0  0  0  0
   32.6956   30.1967    0.0147 C   0  0  0  0  0  0  0  0  0  0  0  0
   32.8153   29.4078   -4.9243 C   0  0  0  0  0  0  0  0  0  0  0  0
   33.6179   23.4274    0.7252 C   0  0  0  0  0  0  0  0  0  0  0  0
   32.3766   30.0775   -3.6724 C   0  0  0  0  0  0  0  0  0  0  0  0
  1 11  1  0
  1 19  1  0
  2 15  1  0
  3 10  1  0
  3 20  1  0
  3 25  1  0
  4 14  1  0
  4 23  1  0
  4 25  2  0
  5 23  1  0
  5 26  2  0
  6 16  1  0
  6 17  1  0
  6 29  2  0
  7 19  1  0
  7 28  2  0
  8 15  2  0
  8 17  1  0
  9 10  2  0
  9 27  1  0
 12 23  2  0
 12 24  1  0
 12 30  1  0
 13 21  1  0
 14 16  2  0
 15 29  1  0
 16 26  1  0
 18 19  2  0
 18 21  1  0
 18 22  1  0
 22 30  2  0
 24 27  2  0
 25 27  1  0
 28 30  1  0
M  END
$$$$
