
     RDKit          3D

 44 50  0  0  0  0  0  0  0  0999 V2000
  -20.4609  -12.0064    9.8683 C   0  0  0  0  0  0  0  0  0  0  0  0
  -17.7068   -6.7793   12.0607 C   0  0  0  0  0  0  0  0  0  0  0  0
  -19.1850  -13.0046    7.7736 C   0  0  0  0  0  0  0  0  0  0  0  0
  -21.5999   -9.7871   12.4025 C   0  0  0  0  0  0  0  0  0  0  0  0
  -22.9061  -11.1873    6.1542 F   0  0  0  0  0  0  0  0  0  0  0  0
  -21.4015  -11.4697   10.7919 C   0  0  0  0  0  0  0  0  0  0  0  0
  -19.1327  -12.3327    9.9971 C   0  0  0  0  0  0  0  0  0  0  0  0
  -15.8642   -6.6078   15.3034 C   0  0  0  0  0  0  0  0  0  0  0  0
  -16.5008  -13.1052   10.1856 C   0  0  0  0  0  0  0  0  0  0  0  0
  -20.4794  -12.6218    7.7339 C   0  0  0  0  0  0  0  0  0  0  0  0
  -19.6949  -10.0115   14.7412 O   0  0  0  0  0  0  0  0  0  0  0  0
  -15.5326   -9.7251   14.9475 F   0  0  0  0  0  0  0  0  0  0  0  0
  -21.1213  -11.0728   12.0354 C   0  0  0  0  0  0  0  0  0  0  0  0
  -20.5548  -13.1267    5.5139 C   0  0  0  0  0  0  0  0  0  0  0  0
  -17.3116   -8.4069   14.3438 C   0  0  0  0  0  0  0  0  0  0  0  0
  -18.3780   -8.4860   13.5262 C   0  0  0  0  0  0  0  0  0  0  0  0
  -20.9620   -7.5840   11.5395 C   0  0  0  0  0  0  0  0  0  0  0  0
  -18.4946  -12.9163    8.9387 C   0  0  0  0  0  0  0  0  0  0  0  0
  -18.4264  -12.0962   11.1508 C   0  0  0  0  0  0  0  0  0  0  0  0
  -21.2173  -12.6839    6.5901 C   0  0  0  0  0  0  0  0  0  0  0  0
  -22.0113   -8.6278   11.5260 C   0  0  0  0  0  0  0  0  0  0  0  0
  -22.7316  -12.3507    6.6432 C   0  0  0  0  0  0  0  0  0  0  0  0
  -20.2608   -9.3180   12.6670 N   0  0  0  0  0  0  0  0  0  0  0  0
  -21.0556  -12.1458    8.8006 N   0  0  0  0  0  0  0  0  0  0  0  0
  -23.2463  -12.3451    7.7890 F   0  0  0  0  0  0  0  0  0  0  0  0
  -17.6333   -6.3470   10.9450 O   0  0  0  0  0  0  0  0  0  0  0  0
  -16.3045   -5.0759   13.0724 C   0  0  0  0  0  0  0  0  0  0  0  0
  -16.9156  -10.6679   13.7284 F   0  0  0  0  0  0  0  0  0  0  0  0
  -15.5235   -4.6160   14.1217 C   0  0  0  0  0  0  0  0  0  0  0  0
  -18.5553   -7.8166   12.4176 C   0  0  0  0  0  0  0  0  0  0  0  0
  -15.2964   -5.3641   15.2342 C   0  0  0  0  0  0  0  0  0  0  0  0
  -22.5219  -11.4784   10.5260 O   0  0  0  0  0  0  0  0  0  0  0  0
  -19.5256   -9.3651   13.7522 C   0  0  0  0  0  0  0  0  0  0  0  0
  -23.4130  -13.1730    5.9382 F   0  0  0  0  0  0  0  0  0  0  0  0
  -15.7007   -9.0414   12.8104 F   0  0  0  0  0  0  0  0  0  0  0  0
  -17.1883  -13.3497    9.0141 C   0  0  0  0  0  0  0  0  0  0  0  0
  -17.1261  -12.4821   11.2363 C   0  0  0  0  0  0  0  0  0  0  0  0
  -16.8765   -6.3359   13.1482 C   0  0  0  0  0  0  0  0  0  0  0  0
  -19.7164   -8.3304   11.7264 C   0  0  0  0  0  0  0  0  0  0  0  0
  -18.5777  -13.4319    6.6343 C   0  0  0  0  0  0  0  0  0  0  0  0
  -15.6028   -7.2796   16.4842 O   0  0  0  0  0  0  0  0  0  0  0  0
  -16.6581   -7.0944   14.2737 C   0  0  0  0  0  0  0  0  0  0  0  0
  -16.3517   -9.4615   13.9457 C   0  0  0  0  0  0  0  0  0  0  0  0
  -19.2862  -13.4767    5.4723 C   0  0  0  0  0  0  0  0  0  0  0  0
  1  6  1  0
  1  7  1  0
  1 24  2  0
  2 26  2  0
  2 30  1  0
  2 38  1  0
  3 10  1  0
  3 18  1  0
  3 40  2  0
  4 13  1  0
  4 21  1  0
  4 23  1  0
  5 22  1  0
  6 13  1  0
  6 32  2  0
  7 18  1  0
  7 19  2  0
  8 31  1  0
  8 41  1  0
  8 42  2  0
  9 36  1  0
  9 37  2  0
 10 20  2  0
 10 24  1  0
 11 33  2  0
 12 43  1  0
 14 20  1  0
 14 44  2  0
 15 16  1  0
 15 42  1  0
 15 43  1  0
 16 30  2  0
 16 33  1  0
 17 21  1  0
 17 39  1  0
 18 36  2  0
 19 37  1  0
 20 22  1  0
 22 25  1  0
 22 34  1  0
 23 33  1  0
 23 39  1  0
 27 29  1  0
 27 38  2  0
 28 43  1  0
 29 31  2  0
 30 39  1  0
 35 43  1  0
 38 42  1  0
 40 44  1  0
M  END
$$$$
