
     RDKit          3D

 32 35  0  0  0  0  0  0  0  0999 V2000
  -21.5026  -12.5303    7.7973 C   0  0  0  0  0  0  0  0  0  0  0  0
  -17.9121   -8.9794   15.0434 O   0  0  0  0  0  0  0  0  0  0  0  0
  -20.9465  -12.1348   10.0773 C   0  0  0  0  0  0  0  0  0  0  0  0
  -18.1569   -7.3792   12.0273 O   0  0  0  0  0  0  0  0  0  0  0  0
  -15.7377   -7.1102   15.4777 C   0  0  0  0  0  0  0  0  0  0  0  0
  -20.3667   -9.4608   13.5014 C   0  0  0  0  0  0  0  0  0  0  0  0
  -17.1808   -8.4240   13.7934 P   0  0  0  0  0  0  0  0  0  0  0  0
  -18.9279  -13.1925    7.2249 C   0  0  0  0  0  0  0  0  0  0  0  0
  -19.7821   -8.0454   13.5066 C   0  0  0  0  0  0  0  0  0  0  0  0
  -16.1390   -9.2834   13.0642 O   0  0  0  0  0  0  0  0  0  0  0  0
  -20.5315  -12.4544    8.7322 C   0  0  0  0  0  0  0  0  0  0  0  0
  -21.1923   -9.7087   12.4340 N   0  0  0  0  0  0  0  0  0  0  0  0
  -19.1187   -9.6977   12.7195 C   0  0  0  0  0  0  0  0  0  0  0  0
  -17.4003  -12.5054    9.9640 N   0  0  0  0  0  0  0  0  0  0  0  0
  -15.8226   -5.2249   14.5327 C   0  0  0  0  0  0  0  0  0  0  0  0
  -16.4165   -6.0480   13.6387 C   0  0  0  0  0  0  0  0  0  0  0  0
  -19.8800  -13.2664    6.2376 C   0  0  0  0  0  0  0  0  0  0  0  0
  -17.6216  -13.5319    6.9966 O   0  0  0  0  0  0  0  0  0  0  0  0
  -21.3205   -9.8785   14.6115 C   0  0  0  0  0  0  0  0  0  0  0  0
  -16.4917   -7.1971   14.2908 N   0  0  0  0  0  0  0  0  0  0  0  0
  -22.3793  -11.3589   12.3885 O   0  0  0  0  0  0  0  0  0  0  0  0
  -19.2961  -12.7356    8.4405 C   0  0  0  0  0  0  0  0  0  0  0  0
  -21.1067   -8.4108   11.6880 C   0  0  0  0  0  0  0  0  0  0  0  0
  -22.1252  -12.9927    5.6109 F   0  0  0  0  0  0  0  0  0  0  0  0
  -21.1995  -10.9264   10.3996 C   0  0  0  0  0  0  0  0  0  0  0  0
  -21.2081  -12.8837    6.5303 C   0  0  0  0  0  0  0  0  0  0  0  0
  -18.3829   -8.1081   13.0555 C   0  0  0  0  0  0  0  0  0  0  0  0
  -15.4625   -5.7916   15.5885 C   0  0  0  0  0  0  0  0  0  0  0  0
  -18.2633  -12.6314    9.2909 C   0  0  0  0  0  0  0  0  0  0  0  0
  -20.8520   -7.3758   12.7402 C   0  0  0  0  0  0  0  0  0  0  0  0
  -17.2654  -14.6878    7.4032 C   0  0  0  0  0  0  0  0  0  0  0  0
  -21.7340  -10.6345   11.7557 C   0  0  0  0  0  0  0  0  0  0  0  0
  1 11  1  0
  1 26  2  0
  2  7  1  0
  3 11  1  0
  3 25  2  3
  4 27  1  0
  5 20  1  0
  5 28  1  0
  6  9  1  0
  6 12  1  0
  6 13  1  0
  6 19  1  0
  7 10  2  0
  7 20  1  0
  7 27  1  0
  8 17  2  0
  8 18  1  0
  8 22  1  0
  9 27  1  0
  9 30  1  0
 11 22  2  0
 12 23  1  0
 12 32  1  0
 13 27  1  0
 14 29  3  0
 15 16  1  0
 15 28  2  0
 16 20  1  0
 17 26  1  0
 18 31  1  0
 21 32  2  0
 22 29  1  0
 23 30  1  0
 24 26  1  0
 25 32  1  0
M  END
$$$$
