
     RDKit          3D

 28 30  0  0  0  0  0  0  0  0999 V2000
  -19.0376   -8.3149   13.1498 C   0  0  0  0  0  0  0  0  0  0  0  0
  -19.9288  -11.7257   10.1065 C   0  0  0  0  0  0  0  0  0  0  0  0
  -19.8146  -13.1378    7.8079 C   0  0  0  0  0  0  0  0  0  0  0  0
  -17.7790  -12.4711   10.6165 O   0  0  0  0  0  0  0  0  0  0  0  0
  -21.0197  -12.4330    8.1100 C   0  0  0  0  0  0  0  0  0  0  0  0
  -21.9099  -13.0151    5.8773 O   0  0  0  0  0  0  0  0  0  0  0  0
  -14.5698   -7.3904   15.3680 O   0  0  0  0  0  0  0  0  0  0  0  0
  -17.5909  -13.7322    8.5017 O   0  0  0  0  0  0  0  0  0  0  0  0
  -20.7813   -9.7497   11.6634 N   0  0  0  0  0  0  0  0  0  0  0  0
  -18.7914  -12.3848    9.7938 C   0  0  0  0  0  0  0  0  0  0  0  0
  -19.7556  -10.8905   11.3646 C   0  0  0  0  0  0  0  0  0  0  0  0
  -23.2126  -12.3537    7.5401 O   0  0  0  0  0  0  0  0  0  0  0  0
  -20.3967   -8.5148   12.4702 C   0  0  0  0  0  0  0  0  0  0  0  0
  -18.4897   -7.1403   12.7203 C   0  0  0  0  0  0  0  0  0  0  0  0
  -21.0368  -11.7079    9.2784 C   0  0  0  0  0  0  0  0  0  0  0  0
  -18.5336   -8.9488   14.2806 C   0  0  0  0  0  0  0  0  0  0  0  0
  -16.8390   -7.3870   14.5009 C   0  0  0  0  0  0  0  0  0  0  0  0
  -17.6764  -14.5744    7.4009 C   0  0  0  0  0  0  0  0  0  0  0  0
  -22.4507  -11.1539   12.0901 O   0  0  0  0  0  0  0  0  0  0  0  0
  -21.8419   -9.8038   13.7566 N   0  0  0  0  0  0  0  0  0  0  0  0
  -22.1503  -12.5417    7.1976 C   0  0  0  0  0  0  0  0  0  0  0  0
  -17.3468   -6.6735   13.4174 C   0  0  0  0  0  0  0  0  0  0  0  0
  -18.7349  -13.0808    8.6721 C   0  0  0  0  0  0  0  0  0  0  0  0
  -21.6532  -10.3361   12.4815 C   0  0  0  0  0  0  0  0  0  0  0  0
  -17.4373   -8.5239   14.9382 C   0  0  0  0  0  0  0  0  0  0  0  0
  -21.3131   -8.7392   13.7343 C   0  0  0  0  0  0  0  0  0  0  0  0
  -15.6448   -6.7833   15.2463 C   0  0  0  0  0  0  0  0  0  0  0  0
  -15.6881   -5.6750   15.7562 O   0  0  0  0  0  0  0  0  0  0  0  0
  1 13  1  0
  1 14  1  0
  1 16  2  0
  2 10  2  0
  2 11  1  0
  2 15  1  0
  3  5  1  0
  3 23  2  0
  4 10  1  0
  5 15  2  0
  5 21  1  0
  6 21  1  0
  7 27  2  0
  8 18  1  0
  8 23  1  0
  9 11  1  0
  9 13  1  0
  9 24  1  0
 10 23  1  0
 12 21  2  0
 13 26  1  0
 14 22  2  0
 16 25  1  0
 17 22  1  0
 17 25  2  0
 17 27  1  0
 19 24  2  0
 20 24  1  0
 20 26  1  0
 27 28  1  0
M  CHG  1   6  -1
M  END
$$$$
