
     RDKit          3D

 28 30  0  0  0  0  0  0  0  0999 V2000
  -22.5886  -10.9915   12.0766 O   0  0  0  0  0  0  0  0  0  0  0  0
  -14.5163   -6.9439   15.3852 O   0  0  0  0  0  0  0  0  0  0  0  0
  -16.3566   -6.1127   16.7526 O   0  0  0  0  0  0  0  0  0  0  0  0
  -20.9396   -9.7041   12.8179 N   0  0  0  0  0  0  0  0  0  0  0  0
  -21.4424  -10.5459   11.9845 C   0  0  0  0  0  0  0  0  0  0  0  0
  -21.2805  -11.5131    8.8786 C   0  0  0  0  0  0  0  0  0  0  0  0
  -20.1745  -13.2780    7.6922 C   0  0  0  0  0  0  0  0  0  0  0  0
  -22.0728  -12.1170    6.7100 O   0  0  0  0  0  0  0  0  0  0  0  0
  -18.2879  -14.4131    8.6253 O   0  0  0  0  0  0  0  0  0  0  0  0
  -21.1844  -12.3236    7.7609 C   0  0  0  0  0  0  0  0  0  0  0  0
  -20.4369  -11.6998    9.9961 C   0  0  0  0  0  0  0  0  0  0  0  0
  -15.8212   -6.1783   15.3622 S   0  0  0  0  0  0  0  0  0  0  0  0
  -22.3444  -10.5400    8.9065 C   0  0  0  0  0  0  0  0  0  0  0  0
  -19.3139  -13.4569    8.7511 C   0  0  0  0  0  0  0  0  0  0  0  0
  -19.4201  -10.1498   11.3587 N   0  0  0  0  0  0  0  0  0  0  0  0
  -20.4460  -10.8513   11.0418 C   0  0  0  0  0  0  0  0  0  0  0  0
  -19.5124  -12.7299    9.9396 C   0  0  0  0  0  0  0  0  0  0  0  0
  -18.7657   -8.6184   12.9953 C   0  0  0  0  0  0  0  0  0  0  0  0
  -15.5828   -4.8576   14.8373 O   0  0  0  0  0  0  0  0  0  0  0  0
  -16.9414   -7.0806   14.4337 C   0  0  0  0  0  0  0  0  0  0  0  0
  -22.1664  -13.1926    5.7863 C   0  0  0  0  0  0  0  0  0  0  0  0
  -17.4438   -6.6175   13.2011 C   0  0  0  0  0  0  0  0  0  0  0  0
  -18.3579   -7.3999   12.4841 C   0  0  0  0  0  0  0  0  0  0  0  0
  -17.5172  -14.1033    7.4449 C   0  0  0  0  0  0  0  0  0  0  0  0
  -18.2668   -9.0491   14.2261 C   0  0  0  0  0  0  0  0  0  0  0  0
  -17.3492   -8.2870   14.9364 C   0  0  0  0  0  0  0  0  0  0  0  0
  -19.7331   -9.5162   12.3848 C   0  0  0  0  0  0  0  0  0  0  0  0
  -21.6777   -9.1528   14.0113 C   0  0  0  0  0  0  0  0  0  0  0  0
  1  5  2  0
  2 12  1  0
  3 12  1  0
  4  5  1  0
  4 27  1  0
  4 28  1  0
  5 16  1  0
  6 10  2  0
  6 11  1  0
  6 13  1  0
  7 10  1  0
  7 14  2  0
  8 10  1  0
  8 21  1  0
  9 14  1  0
  9 24  1  0
 11 16  1  0
 11 17  2  0
 12 19  1  0
 12 20  1  0
 14 17  1  0
 15 16  1  0
 15 27  2  0
 18 23  1  0
 18 25  2  0
 18 27  1  0
 20 22  1  0
 20 26  2  0
 22 23  2  0
 25 26  1  0
M  END
$$$$
