
     RDKit          3D

 26 26  0  0  0  0  0  0  0  0999 V2000
  -19.7795  -12.8569    8.3420 C   0  0  0  0  0  0  0  0  0  0  0  0
  -20.7965  -11.2385   11.1419 N   0  0  0  0  0  0  0  0  0  0  0  0
  -18.7693  -12.6457   10.5892 C   0  0  0  0  0  0  0  0  0  0  0  0
  -21.2969  -10.6014   12.1552 C   0  0  0  0  0  0  0  0  0  0  0  0
  -20.9195  -13.1121    5.8630 Cl  0  0  0  0  0  0  0  0  0  0  0  0
  -19.8053  -12.3842    9.6267 C   0  0  0  0  0  0  0  0  0  0  0  0
  -20.8631  -11.6046   10.0799 C   0  0  0  0  0  0  0  0  0  0  0  0
  -21.8947  -11.7956    7.9686 C   0  0  0  0  0  0  0  0  0  0  0  0
  -18.6671  -14.9045    8.0753 O   0  0  0  0  0  0  0  0  0  0  0  0
  -20.8521   -8.7826   14.9196 C   0  0  0  0  0  0  0  0  0  0  0  0
  -17.5231   -8.5816   13.9341 C   0  0  0  0  0  0  0  0  0  0  0  0
  -19.6876   -7.7751   12.9365 C   0  0  0  0  0  0  0  0  0  0  0  0
  -17.5750   -9.7366   13.7631 O   0  0  0  0  0  0  0  0  0  0  0  0
  -16.5188   -5.6118   14.4223 O   0  0  0  0  0  0  0  0  0  0  0  0
  -20.6891   -8.8192   13.4304 C   0  0  0  0  0  0  0  0  0  0  0  0
  -20.3559  -10.1279   12.9581 O   0  0  0  0  0  0  0  0  0  0  0  0
  -18.7286  -13.5508    7.9269 N   0  0  0  0  0  0  0  0  0  0  0  0
  -17.5757  -12.9840    7.2912 O   0  0  0  0  0  0  0  0  0  0  0  0
  -14.5820   -6.8761   15.5289 O   0  0  0  0  0  0  0  0  0  0  0  0
  -18.3863   -7.6874   13.6357 N   0  0  0  0  0  0  0  0  0  0  0  0
  -20.8457  -12.5529    7.4998 C   0  0  0  0  0  0  0  0  0  0  0  0
  -22.4876  -10.4474   12.3681 O   0  0  0  0  0  0  0  0  0  0  0  0
  -16.4664   -8.0973   14.4963 O   0  0  0  0  0  0  0  0  0  0  0  0
  -16.7785   -6.9320   16.5877 O   0  0  0  0  0  0  0  0  0  0  0  0
  -15.9858   -6.5201   15.4210 P   0  0  0  0  0  0  0  0  0  0  0  0
  -21.9639  -11.3668    9.2870 C   0  0  0  0  0  0  0  0  0  0  0  0
  1  6  1  0
  1 17  1  0
  1 21  2  0
  2  4  1  0
  2  7  1  0
  3  6  1  0
  4 16  1  0
  4 22  2  0
  5 21  1  0
  6  7  2  0
  7 26  1  0
  8 21  1  0
  8 26  2  0
  9 17  1  0
 10 15  1  0
 11 13  2  0
 11 20  1  0
 11 23  1  0
 12 15  1  0
 12 20  1  0
 14 25  2  0
 15 16  1  0
 17 18  2  0
 19 25  1  0
 23 25  1  0
 24 25  1  0
M  CHG  2   9  -1  17   1
M  END
$$$$
