
     RDKit          3D

 33 33  0  0  0  0  0  0  0  0999 V2000
  -14.5080   -4.8136   14.4138 O   0  0  0  0  0  0  0  0  0  0  0  0
  -16.6867   -9.1415   14.2100 P   0  0  0  0  0  0  0  0  0  0  0  0
  -20.3570   -8.5882   11.1569 C   0  0  0  0  0  0  0  0  0  0  0  0
  -19.2571   -8.0005   11.6621 C   0  0  0  0  0  0  0  0  0  0  0  0
  -16.7911   -7.6603   12.2907 O   0  0  0  0  0  0  0  0  0  0  0  0
  -21.8869  -11.9214    8.9073 C   0  0  0  0  0  0  0  0  0  0  0  0
  -17.7372   -6.6425   14.3254 C   0  0  0  0  0  0  0  0  0  0  0  0
  -19.5821  -13.8625    5.9599 F   0  0  0  0  0  0  0  0  0  0  0  0
  -19.4137   -9.3758   13.6610 C   0  0  0  0  0  0  0  0  0  0  0  0
  -22.3545  -14.1514    6.3484 C   0  0  0  0  0  0  0  0  0  0  0  0
  -16.8592   -5.5078   14.3251 C   0  0  0  0  0  0  0  0  0  0  0  0
  -20.0014  -12.1278   10.3866 C   0  0  0  0  0  0  0  0  0  0  0  0
  -20.5141   -9.9669   13.0613 C   0  0  0  0  0  0  0  0  0  0  0  0
  -17.8942  -13.3529    7.1335 F   0  0  0  0  0  0  0  0  0  0  0  0
  -19.0864  -13.8267    7.1488 C   0  0  0  0  0  0  0  0  0  0  0  0
  -20.9142   -9.6498   11.7165 C   0  0  0  0  0  0  0  0  0  0  0  0
  -15.2266   -8.9424   13.9555 O   0  0  0  0  0  0  0  0  0  0  0  0
  -17.5458   -7.8464   13.4239 C   0  0  0  0  0  0  0  0  0  0  0  0
  -15.2359   -6.4191   15.8204 O   0  0  0  0  0  0  0  0  0  0  0  0
  -16.9694   -9.0032   15.7941 O   0  0  0  0  0  0  0  0  0  0  0  0
  -21.2573  -11.6988   10.1291 C   0  0  0  0  0  0  0  0  0  0  0  0
  -19.3690  -12.8061    9.3660 C   0  0  0  0  0  0  0  0  0  0  0  0
  -21.8805  -12.8143    6.7582 N   0  0  0  0  0  0  0  0  0  0  0  0
  -18.7722   -8.4094   12.9072 C   0  0  0  0  0  0  0  0  0  0  0  0
  -22.9416   -9.4970   12.7472 C   0  0  0  0  0  0  0  0  0  0  0  0
  -21.2059  -12.6038    7.9267 C   0  0  0  0  0  0  0  0  0  0  0  0
  -15.5336   -5.6379   14.9472 C   0  0  0  0  0  0  0  0  0  0  0  0
  -22.2093  -10.5664   11.5727 S   0  0  0  0  0  0  0  0  0  0  0  0
  -18.9571  -15.0940    7.5583 F   0  0  0  0  0  0  0  0  0  0  0  0
  -17.0483  -10.5983   13.9063 O   0  0  0  0  0  0  0  0  0  0  0  0
  -19.9334  -13.0619    8.1369 C   0  0  0  0  0  0  0  0  0  0  0  0
  -22.1231  -11.7919    5.7455 C   0  0  0  0  0  0  0  0  0  0  0  0
  -22.7051  -11.4570   12.1689 O   0  0  0  0  0  0  0  0  0  0  0  0
  1 27  1  0
  2 17  2  0
  2 18  1  0
  2 20  1  0
  2 30  1  0
  3  4  2  0
  3 16  1  0
  4 24  1  0
  5 18  1  0
  6 21  1  0
  6 26  2  0
  7 11  1  0
  7 18  1  0
  8 15  1  0
  9 13  1  0
  9 24  2  0
 10 23  1  0
 11 27  1  0
 12 21  2  0
 12 22  1  0
 13 16  2  0
 14 15  1  0
 15 29  1  0
 15 31  1  0
 16 28  1  0
 18 24  1  0
 19 27  2  0
 22 31  2  0
 23 26  1  0
 23 32  1  0
 25 28  1  0
 26 31  1  0
 28 33  2  0
M  END
$$$$
