
     RDKit          3D

 21 23  0  0  0  0  0  0  0  0999 V2000
   22.9319    8.6235  -12.5182 C   0  0  0  0  0  0  0  0  0  0  0  0
   20.9990   11.2935   -7.6453 C   0  0  0  0  0  0  0  0  0  0  0  0
   24.6878    7.5382  -16.2836 O   0  0  0  0  0  0  0  0  0  0  0  0
   21.5274   12.6491   -8.0172 C   0  0  0  0  0  0  0  0  0  0  0  0
   26.3664    8.7746  -14.5462 O   0  0  0  0  0  0  0  0  0  0  0  0
   20.1654   11.8273  -11.3865 C   0  0  0  0  0  0  0  0  0  0  0  0
   20.2450   12.0872   -9.9113 C   0  0  0  0  0  0  0  0  0  0  0  0
   20.3168   10.8050   -8.9441 C   0  0  0  0  0  0  0  0  0  0  0  0
   25.9371    9.6692  -17.2438 O   0  0  0  0  0  0  0  0  0  0  0  0
   22.7377    9.2732  -14.9841 C   0  0  0  0  0  0  0  0  0  0  0  0
   21.4063    9.9765   -9.4932 O   0  0  0  0  0  0  0  0  0  0  0  0
   23.9621   10.1124  -15.3225 C   0  0  0  0  0  0  0  0  0  0  0  0
   21.2598   10.7316  -11.7445 C   0  0  0  0  0  0  0  0  0  0  0  0
   25.4109    8.9107  -15.8062 P   0  0  0  0  0  0  0  0  0  0  0  0
   21.1815   12.9852   -9.2808 N   0  0  0  0  0  0  0  0  0  0  0  0
   22.1837   13.2931   -7.2564 O   0  0  0  0  0  0  0  0  0  0  0  0
   21.5669   10.4694  -13.1176 C   0  0  0  0  0  0  0  0  0  0  0  0
   22.5501    8.8352  -11.1914 C   0  0  0  0  0  0  0  0  0  0  0  0
   22.3634    9.4620  -13.4873 C   0  0  0  0  0  0  0  0  0  0  0  0
   21.7614   14.0369  -10.0337 C   0  0  0  0  0  0  0  0  0  0  0  0
   21.6982    9.8616  -10.8086 C   0  0  0  0  0  0  0  0  0  0  0  0
  1 18  2  0
  1 19  1  0
  2  4  1  0
  2  8  1  0
  3 14  2  0
  4 15  1  0
  4 16  2  0
  5 14  1  0
  6  7  1  0
  6 13  1  0
  7  8  1  0
  7 15  1  0
  8 11  1  0
  9 14  1  0
 10 12  1  0
 10 19  1  0
 11 21  1  0
 12 14  1  0
 13 17  1  0
 13 21  2  0
 15 20  1  0
 17 19  2  0
 18 21  1  0
M  END
$$$$
