
     RDKit          3D

 23 25  0  0  0  0  0  0  0  0999 V2000
    4.1896    0.1760    0.3231 C   0  0  0  0  0  0  0  0  0  0  0  0
   -2.2433    0.1806   -0.0982 C   0  0  0  0  0  0  0  0  0  0  0  0
   -4.2259    0.9424   -1.2784 C   0  0  0  0  0  0  0  0  0  0  0  0
   -3.0333   -0.1036    1.0260 C   0  0  0  0  0  0  0  0  0  0  0  0
   -1.8922    1.0604   -2.6905 Cl  0  0  0  0  0  0  0  0  0  0  0  0
   -4.4100    0.1356    0.9974 C   0  0  0  0  0  0  0  0  0  0  0  0
    4.7137    2.4559    0.8341 O   0  0  0  0  0  0  0  0  0  0  0  0
    1.4585   -2.9780   -0.5064 C   0  0  0  0  0  0  0  0  0  0  0  0
    3.7522    1.4757    0.5676 C   0  0  0  0  0  0  0  0  0  0  0  0
   -5.0055    0.6586   -0.1533 C   0  0  0  0  0  0  0  0  0  0  0  0
    5.9066   -0.2048    0.3522 Cl  0  0  0  0  0  0  0  0  0  0  0  0
    3.2775   -0.8369    0.0524 C   0  0  0  0  0  0  0  0  0  0  0  0
   -1.1843   -2.2536   -0.5418 O   0  0  0  0  0  0  0  0  0  0  0  0
    0.9870   -1.5990   -0.2518 N   0  0  0  0  0  0  0  0  0  0  0  0
    1.8911    3.4484    0.8559 Cl  0  0  0  0  0  0  0  0  0  0  0  0
   -0.8238   -0.0686   -0.0547 N   0  0  0  0  0  0  0  0  0  0  0  0
   -2.8462    0.7055   -1.2571 C   0  0  0  0  0  0  0  0  0  0  0  0
    0.0303    0.9585    0.2238 C   0  0  0  0  0  0  0  0  0  0  0  0
    1.4261    0.7366    0.2651 C   0  0  0  0  0  0  0  0  0  0  0  0
    1.8868   -0.5866    0.0171 C   0  0  0  0  0  0  0  0  0  0  0  0
   -0.3582   -1.3301   -0.2876 C   0  0  0  0  0  0  0  0  0  0  0  0
   -0.4483    2.1050    0.4445 O   0  0  0  0  0  0  0  0  0  0  0  0
    2.3736    1.7725    0.5416 C   0  0  0  0  0  0  0  0  0  0  0  0
  1  9  1  0
  1 11  1  0
  1 12  2  0
  2  4  2  0
  2 16  1  0
  2 17  1  0
  3 10  1  0
  3 17  2  0
  4  6  1  0
  5 17  1  0
  6 10  2  0
  7  9  1  0
  8 14  1  0
  9 23  2  0
 12 20  1  0
 13 21  2  0
 14 20  1  0
 14 21  1  0
 15 23  1  0
 16 18  1  0
 16 21  1  0
 18 19  1  0
 18 22  2  0
 19 20  2  0
 19 23  1  0
M  END
