
     RDKit          3D

 31 35  0  0  0  0  0  0  0  0999 V2000
   -0.0683   -2.2634   -1.9619 C   0  0  0  0  0  0  0  0  0  0  0  0
   -3.5759    0.3324   -0.2514 C   0  0  0  0  0  0  0  0  0  0  0  0
   -5.0920   -1.7227    0.8910 C   0  0  0  0  0  0  0  0  0  0  0  0
    1.3849    2.4490   -1.9667 C   0  0  0  0  0  0  0  0  0  0  0  0
   -3.7596   -1.9549    0.5357 C   0  0  0  0  0  0  0  0  0  0  0  0
   -2.9898   -0.9235   -0.0256 C   0  0  0  0  0  0  0  0  0  0  0  0
    3.7671   -2.5961    2.1592 N   0  0  0  0  0  0  0  0  0  0  0  0
   -0.7104    0.5191    1.6432 S   0  0  0  0  0  0  0  0  0  0  0  0
   -4.9080    0.5608    0.1058 C   0  0  0  0  0  0  0  0  0  0  0  0
    5.3927   -1.3150    0.9652 C   0  0  0  0  0  0  0  0  0  0  0  0
   -0.2456    2.5516   -0.1614 C   0  0  0  0  0  0  0  0  0  0  0  0
    2.7566   -1.8481    1.6377 C   0  0  0  0  0  0  0  0  0  0  0  0
    1.0055   -1.5830   -1.3974 C   0  0  0  0  0  0  0  0  0  0  0  0
    5.0691   -2.3509    1.8445 C   0  0  0  0  0  0  0  0  0  0  0  0
   -0.7210    3.5886   -2.3071 C   0  0  0  0  0  0  0  0  0  0  0  0
   -1.3570   -2.0522   -1.4822 C   0  0  0  0  0  0  0  0  0  0  0  0
   -0.7074    2.1795    1.1450 N   0  0  0  0  0  0  0  0  0  0  0  0
   -1.0968    3.2912   -0.9958 C   0  0  0  0  0  0  0  0  0  0  0  0
   -0.4907   -0.5170    0.2093 C   0  0  0  0  0  0  0  0  0  0  0  0
    0.3977    0.2788    2.6292 O   0  0  0  0  0  0  0  0  0  0  0  0
    1.9608   -0.0012    0.1999 N   0  0  0  0  0  0  0  0  0  0  0  0
   -1.5876   -1.1702   -0.4158 C   0  0  0  0  0  0  0  0  0  0  0  0
    5.9833   -3.0604    2.3429 O   0  0  0  0  0  0  0  0  0  0  0  0
    3.0344   -0.7864    0.7601 C   0  0  0  0  0  0  0  0  0  0  0  0
    1.0298    2.1606   -0.6379 C   0  0  0  0  0  0  0  0  0  0  0  0
   -5.6650   -0.4653    0.6788 C   0  0  0  0  0  0  0  0  0  0  0  0
   -2.0088    0.2144    2.3355 O   0  0  0  0  0  0  0  0  0  0  0  0
    2.0375    1.4735    0.2573 C   0  0  0  0  0  0  0  0  0  0  0  0
    0.5124    3.1570   -2.7957 C   0  0  0  0  0  0  0  0  0  0  0  0
    4.3728   -0.5348    0.4196 C   0  0  0  0  0  0  0  0  0  0  0  0
    0.8103   -0.6978   -0.3277 C   0  0  0  0  0  0  0  0  0  0  0  0
  1 13  1  0
  1 16  2  0
  2  6  1  0
  2  9  2  0
  3  5  1  0
  3 26  2  0
  4 25  2  0
  4 29  1  0
  5  6  2  0
  6 22  1  0
  7 12  1  0
  7 14  1  0
  8 17  1  0
  8 19  1  0
  8 20  2  0
  8 27  2  0
  9 26  1  0
 10 14  1  0
 10 30  2  0
 11 17  1  0
 11 18  2  0
 11 25  1  0
 12 24  2  0
 13 31  2  0
 14 23  2  0
 15 18  1  0
 15 29  2  0
 16 22  1  0
 19 22  2  0
 19 31  1  0
 21 24  1  0
 21 28  1  0
 21 31  1  0
 24 30  1  0
 25 28  1  0
M  END
