
     RDKit          3D

 15 16  0  0  0  0  0  0  0  0999 V2000
   -1.3893   -0.8668    0.9295 C   0  0  0  0  0  0  0  0  0  0  0  0
   -2.9338    0.7658   -0.7325 C   0  0  0  0  0  0  0  0  0  0  0  0
   -5.3061   -0.1263    0.2978 Cl  0  0  0  0  0  0  0  0  0  0  0  0
   -2.7831   -0.8996    1.0160 C   0  0  0  0  0  0  0  0  0  0  0  0
   -1.5371    0.8066   -0.8272 C   0  0  0  0  0  0  0  0  0  0  0  0
    5.2900    0.0460   -0.1441 Cl  0  0  0  0  0  0  0  0  0  0  0  0
   -0.7505   -0.0099    0.0164 C   0  0  0  0  0  0  0  0  0  0  0  0
    2.8324    1.2178    0.1310 C   0  0  0  0  0  0  0  0  0  0  0  0
    1.4347    1.2080    0.1666 C   0  0  0  0  0  0  0  0  0  0  0  0
    1.4434   -1.1792   -0.2576 C   0  0  0  0  0  0  0  0  0  0  0  0
    0.7286    0.0104   -0.0381 C   0  0  0  0  0  0  0  0  0  0  0  0
   -0.8169    1.8421   -2.0566 Cl  0  0  0  0  0  0  0  0  0  0  0  0
    3.5366    0.0319   -0.1007 C   0  0  0  0  0  0  0  0  0  0  0  0
    2.8411   -1.1662   -0.2928 C   0  0  0  0  0  0  0  0  0  0  0  0
   -3.5559   -0.0819    0.1884 C   0  0  0  0  0  0  0  0  0  0  0  0
  1  4  2  0
  1  7  1  0
  2  5  1  0
  2 15  2  0
  3 15  1  0
  4 15  1  0
  5  7  2  0
  5 12  1  0
  6 13  1  0
  7 11  1  0
  8  9  2  0
  8 13  1  0
  9 11  1  0
 10 11  2  0
 10 14  1  0
 13 14  2  0
M  END
