
     RDKit          3D

 19 22  0  0  0  0  0  0  0  0999 V2000
   30.4429   24.0430    2.1503 C   0  0  0  0  0  0  0  0  0  0  0  0
   33.1649   24.7369    6.6399 C   0  0  0  0  0  0  0  0  0  0  0  0
   32.6683   25.0442    2.6387 C   0  0  0  0  0  0  0  0  0  0  0  0
   30.1994   25.3251    1.3525 C   0  0  0  0  0  0  0  0  0  0  0  0
   32.4417   24.1211    5.2429 C   0  0  0  0  0  0  0  0  0  0  0  0
   35.3730   24.3106    7.3766 C   0  0  0  0  0  0  0  0  0  0  0  0
   31.9263   23.3266    4.1207 C   0  0  0  0  0  0  0  0  0  0  0  0
   31.2420   26.0140    0.7836 C   0  0  0  0  0  0  0  0  0  0  0  0
   34.4829   24.6778    6.3832 C   0  0  0  0  0  0  0  0  0  0  0  0
   32.7808   22.1121    4.0319 C   0  0  0  0  0  0  0  0  0  0  0  0
   29.0809   25.9616    0.9328 C   0  0  0  0  0  0  0  0  0  0  0  0
   31.6322   24.1941    3.0924 N   0  0  0  0  0  0  0  0  0  0  0  0
   29.1304   23.2020    2.3963 C   0  0  0  0  0  0  0  0  0  0  0  0
   32.6272   25.5627    1.1692 C   0  0  0  0  0  0  0  0  0  0  0  0
   32.1401   25.3819    5.4407 C   0  0  0  0  0  0  0  0  0  0  0  0
   35.1309   23.5588    7.0434 C   0  0  0  0  0  0  0  0  0  0  0  0
   34.1378   22.1166    3.6604 C   0  0  0  0  0  0  0  0  0  0  0  0
   29.1436   26.9534    0.1623 C   0  0  0  0  0  0  0  0  0  0  0  0
   30.7673   27.2120   -0.2397 S   0  0  0  0  0  0  0  0  0  0  0  0
  1  4  1  0
  1 12  1  0
  1 13  1  0
  2  5  1  0
  2  9  1  0
  2 15  1  0
  3 12  1  0
  3 14  1  0
  4  8  2  0
  4 11  1  0
  5  7  1  0
  5 15  2  0
  6  9  1  0
  6 16  2  0
  7 10  1  0
  7 12  1  0
  8 14  1  0
  8 19  1  0
  9 16  1  0
 10 17  1  0
 11 18  2  0
 18 19  1  0
M  END
$$$$
