
     RDKit          3D

 16 17  0  0  0  0  0  0  0  0999 V2000
   33.9256   23.7722    5.7279 C   0  0  0  0  0  0  0  0  0  0  0  0
   32.4780   24.0122    2.1938 C   0  0  0  0  0  0  0  0  0  0  0  0
   29.2148   24.5576    1.1041 O   0  0  0  0  0  0  0  0  0  0  0  0
   31.1577   25.9717    0.7796 C   0  0  0  0  0  0  0  0  0  0  0  0
   33.3842   23.4633    4.4709 C   0  0  0  0  0  0  0  0  0  0  0  0
   30.2801   27.8074    0.0410 C   0  0  0  0  0  0  0  0  0  0  0  0
   31.4031   27.2464    0.3445 C   0  0  0  0  0  0  0  0  0  0  0  0
   29.7954   25.7355    0.8077 C   0  0  0  0  0  0  0  0  0  0  0  0
   32.2801   25.6623    4.0955 C   0  0  0  0  0  0  0  0  0  0  0  0
   33.8663   24.8121    6.4156 C   0  0  0  0  0  0  0  0  0  0  0  0
   31.9993   24.7343    1.2794 C   0  0  0  0  0  0  0  0  0  0  0  0
   32.7215   26.1507    5.3043 C   0  0  0  0  0  0  0  0  0  0  0  0
   29.2911   26.8456    0.2886 C   0  0  0  0  0  0  0  0  0  0  0  0
   33.4646   26.1830    6.5434 C   0  0  0  0  0  0  0  0  0  0  0  0
   27.9793   24.6736    1.7544 C   0  0  0  0  0  0  0  0  0  0  0  0
   32.7991   24.3393    3.6653 C   0  0  0  0  0  0  0  0  0  0  0  0
  1  5  1  0
  1 10  2  0
  2 11  2  3
  2 16  1  0
  3  8  1  0
  3 15  1  0
  4  7  4  0
  4  8  4  0
  4 11  1  0
  5 16  1  0
  6  7  4  0
  6 13  4  0
  8 13  4  0
  9 12  2  0
  9 16  1  0
 10 14  1  0
 12 14  1  0
M  END
$$$$
