
     RDKit          3D

 22 23  0  0  0  0  0  0  0  0999 V2000
  -15.4702    1.6025  -20.4014 O   0  0  0  0  0  0  0  0  0  0  0  0
  -13.0431   -4.8938  -23.6558 C   0  0  0  0  0  0  0  0  0  0  0  0
  -16.1864    3.0066  -20.1659 P   0  0  0  0  0  0  0  0  0  0  0  0
  -13.5306   -6.0161  -23.0183 N   0  0  0  0  0  0  0  0  0  0  0  0
  -11.9284   -5.0268  -24.4259 N   0  0  0  0  0  0  0  0  0  0  0  0
  -15.4239   -1.2035  -23.4779 C   0  0  0  0  0  0  0  0  0  0  0  0
  -16.5629   -0.4152  -23.8264 O   0  0  0  0  0  0  0  0  0  0  0  0
  -16.3130    0.5707  -20.8627 C   0  0  0  0  0  0  0  0  0  0  0  0
  -15.0047    3.9255  -19.6115 O   0  0  0  0  0  0  0  0  0  0  0  0
  -15.2285   -7.0919  -21.8708 O   0  0  0  0  0  0  0  0  0  0  0  0
  -14.6012   -1.1241  -24.6323 O   0  0  0  0  0  0  0  0  0  0  0  0
  -16.3904    3.6051  -21.6304 O   0  0  0  0  0  0  0  0  0  0  0  0
  -14.8349   -3.5930  -22.7495 C   0  0  1  0  0  0  0  0  0  0  0  0
  -14.6698   -6.0704  -22.2497 C   0  0  0  0  0  0  0  0  0  0  0  0
  -14.7440   -0.5746  -22.2356 C   0  0  0  0  0  0  0  0  0  0  0  0
  -14.6606   -3.7718  -21.3247 N   0  0  0  0  0  0  0  0  0  0  0  0
  -12.9158   -7.2509  -23.3309 O   0  0  0  0  0  0  0  0  0  0  0  0
  -15.5715   -0.6268  -21.0698 O   0  0  0  0  0  0  0  0  0  0  0  0
  -17.4081    3.0232  -19.3175 O   0  0  0  0  0  0  0  0  0  0  0  0
  -15.8956   -2.6488  -23.2542 C   0  0  0  0  0  0  0  0  0  0  0  0
  -13.5948   -3.7242  -23.5424 N   0  0  0  0  0  0  0  0  0  0  0  0
  -15.2441   -4.7478  -21.9347 C   0  0  0  0  0  0  0  0  0  0  0  0
  1  3  1  0
  1  8  1  0
  2  4  1  0
  2  5  1  0
  2 21  2  0
  3  9  1  0
  3 12  1  0
  3 19  2  0
  4 14  1  0
  4 17  1  0
  6  7  1  0
  6 11  1  0
  6 15  1  0
  6 20  1  0
  8 18  1  0
 10 14  2  0
 13 16  1  0
 13 20  1  6
 13 21  1  0
 13 22  1  0
 14 22  1  0
 15 18  1  0
 16 22  2  0
M  END
$$$$
