
     RDKit          3D

 27 29  0  0  0  0  0  0  0  0999 V2000
  -16.0122   -0.8549  -21.8498 N   0  0  0  0  0  0  0  0  0  0  0  0
  -12.9022   -2.4866  -26.5232 O   0  0  0  0  0  0  0  0  0  0  0  0
  -15.2721   -1.7543  -20.9936 C   0  0  1  0  0  0  0  0  0  0  0  0
  -12.5889   -3.4267  -22.7606 C   0  0  0  0  0  0  0  0  0  0  0  0
  -14.8314   -5.3466  -21.5228 O   0  0  0  0  0  0  0  0  0  0  0  0
  -16.6569    0.3326  -23.6548 N   0  0  0  0  0  0  0  0  0  0  0  0
   -9.6282   -0.0594  -24.9295 O   0  0  0  0  0  0  0  0  0  0  0  0
  -17.8744   -0.0840  -20.3659 N   0  0  0  0  0  0  0  0  0  0  0  0
  -15.8472   -3.1752  -20.9444 C   0  0  2  0  0  0  0  0  0  0  0  0
  -13.9034   -1.8436  -21.4665 O   0  0  0  0  0  0  0  0  0  0  0  0
  -17.1300   -3.2672  -21.3407 F   0  0  0  0  0  0  0  0  0  0  0  0
   -9.7145   -1.8269  -26.3563 O   0  0  0  0  0  0  0  0  0  0  0  0
  -17.4881    0.5386  -22.6078 C   0  0  0  0  0  0  0  0  0  0  0  0
  -13.5929   -3.2455  -21.6246 C   0  0  1  0  0  0  0  0  0  0  0  0
  -17.1273   -0.1686  -21.4978 C   0  0  0  0  0  0  0  0  0  0  0  0
  -11.2757   -1.4645  -24.7428 O   0  0  0  0  0  0  0  0  0  0  0  0
  -19.4086    1.9967  -22.8158 O   0  0  0  0  0  0  0  0  0  0  0  0
  -19.8540    1.1952  -19.9273 N   0  0  0  0  0  0  0  0  0  0  0  0
  -10.1748   -1.1753  -25.4373 C   0  0  0  0  0  0  0  0  0  0  0  0
  -11.1998   -3.9545  -25.2329 O   0  0  0  0  0  0  0  0  0  0  0  0
  -18.6653    1.2422  -22.2224 C   0  0  0  0  0  0  0  0  0  0  0  0
  -15.7633   -0.5183  -23.1658 C   0  0  0  0  0  0  0  0  0  0  0  0
  -13.1582   -2.9782  -23.9831 O   0  0  0  0  0  0  0  0  0  0  0  0
  -15.8210   -3.7354  -19.6326 O   0  0  0  0  0  0  0  0  0  0  0  0
  -12.1848   -2.6887  -25.2313 P   0  0  2  0  0  0  0  0  0  0  0  0
  -14.9188   -3.9601  -21.8579 C   0  0  1  0  0  0  0  0  0  0  0  0
  -18.8251    0.7634  -20.7173 C   0  0  0  0  0  0  0  0  0  0  0  0
  3  1  1  6
  1 15  1  0
  1 22  1  0
  2 25  2  0
  3  9  1  0
  3 10  1  0
 14  4  1  6
  4 23  1  0
 26  5  1  1
  6 13  1  0
  6 22  2  0
  7 19  1  0
  8 15  1  0
  8 27  2  0
  9 11  1  0
  9 24  1  1
  9 26  1  0
 10 14  1  0
 12 19  2  0
 13 15  2  0
 13 21  1  0
 14 26  1  0
 16 19  1  0
 16 25  1  0
 17 21  2  0
 18 27  1  0
 25 20  1  6
 21 27  1  0
 23 25  1  0
M  END
$$$$
