
     RDKit          3D

 25 27  0  0  0  0  0  0  0  0999 V2000
    3.8439    0.8669    1.3203 C   0  0  0  0  0  0  0  0  0  0  0  0
   -2.5419   -0.6206    2.6710 C   0  0  0  0  0  0  0  0  0  0  0  0
   -1.4092   -1.3703    2.3571 C   0  0  0  0  0  0  0  0  0  0  0  0
    3.4156   -1.1100   -0.5218 C   0  0  0  0  0  0  0  0  0  0  0  0
   -2.7163    1.6191   -0.3177 O   0  0  0  0  0  0  0  0  0  0  0  0
    4.8238   -0.1173    1.0694 C   0  0  0  0  0  0  0  0  0  0  0  0
   -5.5207    0.3365   -0.4049 C   0  0  0  0  0  0  0  0  0  0  0  0
   -2.9885    0.3756    1.7998 C   0  0  0  0  0  0  0  0  0  0  0  0
    1.3523   -0.5086   -1.1033 N   0  0  0  0  0  0  0  0  0  0  0  0
    6.0656   -0.0932    1.7735 N   0  0  0  0  0  0  0  0  0  0  0  0
   -0.2455    0.1776   -1.1970 S   0  0  0  0  0  0  0  0  0  0  0  0
   -0.1476    1.6463   -1.4956 O   0  0  0  0  0  0  0  0  0  0  0  0
   -0.9960   -0.4801   -2.3212 O   0  0  0  0  0  0  0  0  0  0  0  0
   -3.9488    2.3427   -0.2951 C   0  0  0  0  0  0  0  0  0  0  0  0
    4.5921   -1.0934    0.1478 N   0  0  0  0  0  0  0  0  0  0  0  0
    1.7075   -1.6209   -1.7937 C   0  0  0  0  0  0  0  0  0  0  0  0
   -1.1449   -0.1170    0.2947 C   0  0  0  0  0  0  0  0  0  0  0  0
   -2.2999    0.6332    0.5956 C   0  0  0  0  0  0  0  0  0  0  0  0
    2.6085    0.8475    0.6324 C   0  0  0  0  0  0  0  0  0  0  0  0
    3.7065   -3.2394   -1.9311 C   0  0  0  0  0  0  0  0  0  0  0  0
   -0.7143   -1.1228    1.1732 C   0  0  0  0  0  0  0  0  0  0  0  0
    2.9951   -2.0108   -1.4673 C   0  0  0  0  0  0  0  0  0  0  0  0
    2.4149   -0.1905   -0.3113 C   0  0  0  0  0  0  0  0  0  0  0  0
    1.6271    1.9538    0.8910 C   0  0  0  0  0  0  0  0  0  0  0  0
   -5.0380    1.6122   -1.0889 C   0  0  0  0  0  0  0  0  0  0  0  0
  1  6  2  0
  1 19  1  0
  2  3  2  0
  2  8  1  0
  3 21  1  0
  4 15  2  0
  4 22  1  0
  4 23  1  0
  5 14  1  0
  5 18  1  0
  6 10  1  0
  6 15  1  0
  7 25  1  0
  8 18  2  0
  9 11  1  0
  9 16  1  0
  9 23  1  0
 11 12  2  0
 11 13  2  0
 11 17  1  0
 14 25  1  0
 16 22  2  0
 17 18  1  0
 17 21  2  0
 19 23  2  0
 19 24  1  0
 20 22  1  0
M  END
