
     RDKit          3D

 29 33  0  0  0  0  0  0  0  0999 V2000
   -2.8450    0.0936    3.6139 N   0  0  0  0  0  0  0  0  0  0  0  0
   -1.0400    2.9662    3.7262 O   0  0  0  0  0  0  0  0  0  0  0  0
   -2.6595   -0.7149    1.2147 C   0  0  0  0  0  0  0  0  0  0  0  0
    3.8896    0.2158   -0.2977 C   0  0  0  0  0  0  0  0  0  0  0  0
    1.6748    0.6448   -0.9737 C   0  0  0  0  0  0  0  0  0  0  0  0
    3.1732   -2.1263    0.4443 C   0  0  0  0  0  0  0  0  0  0  0  0
   -1.2926    0.7268   -0.2446 C   0  0  0  0  0  0  0  0  0  0  0  0
   -2.3991    1.0959    4.2644 N   0  0  0  0  0  0  0  0  0  0  0  0
   -2.0833   -0.4424   -0.0532 C   0  0  0  0  0  0  0  0  0  0  0  0
   -3.4590   -0.9350   -1.9637 O   0  0  0  0  0  0  0  0  0  0  0  0
    2.3304   -2.8468    1.3035 O   0  0  0  0  0  0  0  0  0  0  0  0
    1.5691   -0.2926    0.0826 N   0  0  0  0  0  0  0  0  0  0  0  0
   -1.0967    1.6435    0.8264 C   0  0  0  0  0  0  0  0  0  0  0  0
    3.3494    1.7842   -2.2829 C   0  0  0  0  0  0  0  0  0  0  0  0
    2.9867    0.9402   -1.2337 C   0  0  0  0  0  0  0  0  0  0  0  0
   -2.5606   -2.8351   -0.7493 C   0  0  0  0  0  0  0  0  0  0  0  0
   -1.6352    1.9123    3.3815 C   0  0  0  0  0  0  0  0  0  0  0  0
   -2.4057    0.1800    2.2564 C   0  0  0  0  0  0  0  0  0  0  0  0
    2.9080   -0.6199    0.5717 C   0  0  2  0  0  0  0  0  0  0  0  0
   -1.6476    1.3033    2.0656 C   0  0  0  0  0  0  0  0  0  0  0  0
   -3.4810   -1.9291    1.3946 C   0  0  0  0  0  0  0  0  0  0  0  0
    2.3370    2.3282   -3.0858 C   0  0  0  0  0  0  0  0  0  0  0  0
    0.6331    1.1984   -1.7466 C   0  0  0  0  0  0  0  0  0  0  0  0
   -0.3272    2.9248    0.6555 C   0  0  0  0  0  0  0  0  0  0  0  0
    0.9875    2.0304   -2.8232 C   0  0  0  0  0  0  0  0  0  0  0  0
   -2.3536   -1.3824   -1.2199 C   0  0  2  0  0  0  0  0  0  0  0  0
   -4.1561   -2.1108    2.4430 O   0  0  0  0  0  0  0  0  0  0  0  0
   -0.7274    0.9548   -1.5070 O   0  0  0  0  0  0  0  0  0  0  0  0
   -3.5270   -2.8965    0.3436 N   0  0  0  0  0  0  0  0  0  0  0  0
  1  8  2  0
  1 18  1  0
  2 17  2  0
  3  9  2  0
  3 18  1  0
  3 21  1  0
  4 15  1  0
  4 19  1  0
  5 12  1  0
  5 15  2  0
  5 23  1  0
  6 11  1  0
 19  6  1  6
  7  9  1  0
  7 13  2  0
  7 28  1  0
  8 17  1  0
  9 26  1  0
 26 10  1  1
 12 19  1  0
 13 20  1  0
 13 24  1  0
 14 15  1  0
 14 22  2  0
 16 26  1  0
 16 29  1  0
 17 20  1  0
 18 20  2  0
 21 27  2  0
 21 29  1  0
 22 25  1  0
 23 25  2  0
 23 28  1  0
M  END
