
     RDKit          3D

 20 22  0  0  0  0  0  0  0  0999 V2000
    5.7649   -0.4116    0.4732 O   0  0  0  0  0  0  0  0  0  0  0  0
   -2.9704    0.6212   -1.5095 C   0  0  0  0  0  0  0  0  0  0  0  0
   -2.0612    0.1438   -0.5504 C   0  0  0  0  0  0  0  0  0  0  0  0
    1.3128    1.7320    0.3362 C   0  0  0  0  0  0  0  0  0  0  0  0
    1.6300   -0.6699   -0.2191 C   0  0  0  0  0  0  0  0  0  0  0  0
    2.4455   -1.8031   -0.3472 C   0  0  0  0  0  0  0  0  0  0  0  0
   -4.3402    0.3603   -1.3842 C   0  0  0  0  0  0  0  0  0  0  0  0
    2.1973    0.5606    0.1624 C   0  0  0  0  0  0  0  0  0  0  0  0
   -6.5267   -0.7262   -0.0925 Cl  0  0  0  0  0  0  0  0  0  0  0  0
   -3.9142   -0.8446    0.6765 C   0  0  0  0  0  0  0  0  0  0  0  0
   -0.5847    0.4536   -0.6800 C   0  0  1  0  0  0  0  0  0  0  0  0
    4.3920   -0.4876    0.2490 C   0  0  0  0  0  0  0  0  0  0  0  0
    1.7951    2.8756    0.5574 O   0  0  0  0  0  0  0  0  0  0  0  0
    3.8201   -1.7105   -0.1148 C   0  0  0  0  0  0  0  0  0  0  0  0
   -0.1773    1.5451    0.3267 C   0  0  0  0  0  0  0  0  0  0  0  0
   -2.5478   -0.5833    0.5502 C   0  0  0  0  0  0  0  0  0  0  0  0
    3.5817    0.6479    0.3876 C   0  0  0  0  0  0  0  0  0  0  0  0
   -5.4391    0.9730   -2.6128 Cl  0  0  0  0  0  0  0  0  0  0  0  0
   -4.8142   -0.3777   -0.2869 C   0  0  0  0  0  0  0  0  0  0  0  0
    0.2216   -0.7582   -0.4875 N   0  0  0  0  0  0  0  0  0  0  0  0
  1 12  1  0
  2  3  2  0
  2  7  1  0
 11  3  1  1
  3 16  1  0
  4  8  1  0
  4 13  2  0
  4 15  1  0
  5  6  1  0
  5  8  2  0
  5 20  1  0
  6 14  2  0
  7 18  1  0
  7 19  2  0
  8 17  1  0
  9 19  1  0
 10 16  2  0
 10 19  1  0
 11 15  1  0
 11 20  1  0
 12 14  1  0
 12 17  2  0
M  END
