
     RDKit          3D

 24 25  0  0  0  0  0  0  0  0999 V2000
   -3.8083    1.6427   -1.3025 C   0  0  0  0  0  0  0  0  0  0  0  0
   -0.2898   -1.3447   -0.9648 C   0  0  0  0  0  0  0  0  0  0  0  0
    1.5803   -2.8982   -0.3514 C   0  0  0  0  0  0  0  0  0  0  0  0
   -0.1010   -1.1088   -2.1898 O   0  0  0  0  0  0  0  0  0  0  0  0
   -2.5641    0.8821   -0.8040 C   0  0  1  0  0  0  0  0  0  0  0  0
   -1.9963   -2.2863    0.6662 C   0  0  0  0  0  0  0  0  0  0  0  0
    5.4013    0.9138    2.1789 C   0  0  0  0  0  0  0  0  0  0  0  0
   -4.0946    2.9541   -0.5868 C   0  0  0  0  0  0  0  0  0  0  0  0
    3.8060    0.9325    0.1995 C   0  0  0  0  0  0  0  0  0  0  0  0
    3.6894    1.6559   -0.9319 N   0  0  0  0  0  0  0  0  0  0  0  0
   -1.6392   -1.3970   -0.4502 N   0  0  0  0  0  0  0  0  0  0  0  0
   -2.7011   -0.6218   -1.1125 C   0  0  0  0  0  0  0  0  0  0  0  0
    1.8323   -0.4714   -0.3042 O   0  0  0  0  0  0  0  0  0  0  0  0
    3.0464   -0.7936    1.6369 O   0  0  0  0  0  0  0  0  0  0  0  0
    2.8874   -0.1570    0.5599 C   0  0  0  0  0  0  0  0  0  0  0  0
   -1.4088    1.4170   -1.3986 O   0  0  0  0  0  0  0  0  0  0  0  0
    4.8995    1.3889    0.9168 C   0  0  0  0  0  0  0  0  0  0  0  0
   -2.2735   -1.4839    1.9339 C   0  0  0  0  0  0  0  0  0  0  0  0
    5.8219    0.5159    3.2362 C   0  0  0  0  0  0  0  0  0  0  0  0
    2.1061   -2.9484   -1.6514 O   0  0  0  0  0  0  0  0  0  0  0  0
    4.6702    2.5459   -0.9449 N   0  0  0  0  0  0  0  0  0  0  0  0
   -4.9631    1.7351   -0.3157 C   0  0  0  0  0  0  0  0  0  0  0  0
    5.4242    2.4128    0.1614 C   0  0  0  0  0  0  0  0  0  0  0  0
    0.9122   -1.5398   -0.0745 C   0  0  1  0  0  0  0  0  0  0  0  0
  1  5  1  0
  1  8  1  0
  1 22  1  0
  2  4  2  0
  2 11  1  0
  2 24  1  0
  3 20  1  0
 24  3  1  6
  5 12  1  0
  5 16  1  6
  6 11  1  0
  6 18  1  0
  7 17  1  0
  7 19  3  0
  8 22  1  0
  9 10  2  0
  9 15  1  0
  9 17  1  0
 10 21  1  0
 11 12  1  0
 13 15  1  0
 13 24  1  0
 14 15  2  0
 17 23  2  0
 21 23  1  0
M  END
