
     RDKit          3D

 40 45  0  0  0  0  0  0  0  0999 V2000
    8.1802    0.4696    7.3389 C   0  0  0  0  0  0  0  0  0  0  0  0
    5.3469    0.0832    3.9716 C   0  0  0  0  0  0  0  0  0  0  0  0
    9.5062   -0.8706    0.7863 C   0  0  0  0  0  0  0  0  0  0  0  0
    8.6545   -3.8962    2.6888 C   0  0  0  0  0  0  0  0  0  0  0  0
    7.3242   -4.2766    4.6675 C   0  0  0  0  0  0  0  0  0  0  0  0
    8.7307    0.5484    5.8986 C   0  0  0  0  0  0  0  0  0  0  0  0
    8.0706   -1.2537    2.8741 C   0  0  0  0  0  0  0  0  0  0  0  0
    2.2501    0.8948   -1.7696 C   0  0  0  0  0  0  0  0  0  0  0  0
    7.5906   -5.6450    4.6039 C   0  0  0  0  0  0  0  0  0  0  0  0
    7.8428   -3.3947    3.7270 C   0  0  0  0  0  0  0  0  0  0  0  0
    6.8104    0.6613    6.6624 C   0  0  0  0  0  0  0  0  0  0  0  0
    7.3427    0.4067    5.4447 N   0  0  0  0  0  0  0  0  0  0  0  0
    8.8856   -1.7503    1.8496 C   0  0  0  0  0  0  0  0  0  0  0  0
    7.5620   -2.0825    3.8205 N   0  0  0  0  0  0  0  0  0  0  0  0
    7.9082   -1.4043   -1.1050 C   0  0  0  0  0  0  0  0  0  0  0  0
    9.1771   -3.0777    1.7595 N   0  0  0  0  0  0  0  0  0  0  0  0
    4.3316    1.1522    1.8953 C   0  0  0  0  0  0  0  0  0  0  0  0
    3.4069    2.2681   -0.0924 N   0  0  0  0  0  0  0  0  0  0  0  0
    8.3664    0.9133   -0.6031 C   0  0  0  0  0  0  0  0  0  0  0  0
    5.9790    2.8726    4.9509 O   0  0  0  0  0  0  0  0  0  0  0  0
    8.9154   -5.2602    2.6334 C   0  0  0  0  0  0  0  0  0  0  0  0
    7.7535    0.2197    2.9881 C   0  0  0  0  0  0  0  0  0  0  0  0
    3.8060    1.1113    0.5895 C   0  0  0  0  0  0  0  0  0  0  0  0
    3.9124    3.5788    0.2816 C   0  0  0  0  0  0  0  0  0  0  0  0
    4.6430   -1.2390    1.9459 C   0  0  0  0  0  0  0  0  0  0  0  0
    3.0952    2.1299   -1.5198 C   0  0  0  0  0  0  0  0  0  0  0  0
    5.2510    3.6967   -0.1487 O   0  0  0  0  0  0  0  0  0  0  0  0
    4.7652   -0.0007    2.5756 C   0  0  0  0  0  0  0  0  0  0  0  0
    3.0452   -0.3323   -1.3640 C   0  0  0  0  0  0  0  0  0  0  0  0
    4.0876   -1.3215    0.6748 C   0  0  0  0  0  0  0  0  0  0  0  0
    5.6985    1.0402    6.9447 O   0  0  0  0  0  0  0  0  0  0  0  0
    6.6607    2.2376    3.9655 C   0  0  0  0  0  0  0  0  0  0  0  0
    6.8609    0.3429   -2.4036 C   0  0  0  0  0  0  0  0  0  0  0  0
    7.5132    1.3045   -1.6358 C   0  0  0  0  0  0  0  0  0  0  0  0
    7.0581   -1.0106   -2.1391 C   0  0  0  0  0  0  0  0  0  0  0  0
    3.6499   -0.1657    0.0070 C   0  0  0  0  0  0  0  0  0  0  0  0
    7.0992    2.8725    3.0126 O   0  0  0  0  0  0  0  0  0  0  0  0
    8.3903   -6.1392    3.5818 C   0  0  0  0  0  0  0  0  0  0  0  0
    8.5672   -0.4464   -0.3205 C   0  0  0  0  0  0  0  0  0  0  0  0
    6.7772    0.6959    4.1092 C   0  0  1  0  0  0  0  0  0  0  0  0
  1  6  1  0
  1 11  1  0
  2 28  1  0
 40  2  1  6
  3 13  1  0
  3 39  1  0
  4 10  1  0
  4 16  1  0
  4 21  2  0
  5  9  1  0
  5 10  2  0
  6 12  1  0
  7 13  1  0
  7 14  2  0
  7 22  1  0
  8 26  1  0
  8 29  1  0
  9 38  2  0
 10 14  1  0
 11 12  1  0
 11 31  2  0
 12 40  1  0
 13 16  2  0
 15 35  2  0
 15 39  1  0
 17 23  1  0
 17 28  2  0
 18 23  1  0
 18 24  1  0
 18 26  1  0
 19 34  1  0
 19 39  2  0
 20 32  1  0
 21 38  1  0
 22 40  1  0
 23 36  2  0
 24 27  1  0
 25 28  1  0
 25 30  2  0
 29 36  1  0
 30 36  1  0
 32 37  2  0
 32 40  1  0
 33 34  2  0
 33 35  1  0
M  END
$$$$
