
     RDKit          3D

 24 26  0  0  0  0  0  0  0  0999 V2000
   47.6904   49.4730    0.3522 C   0  0  0  0  0  0  0  0  0  0  0  0
   47.7788   50.6555   -1.9154 C   0  0  0  0  0  0  0  0  0  0  0  0
   49.8042   51.9726    0.5444 C   0  0  0  0  0  0  0  0  0  0  0  0
   47.5160   55.8937    0.0598 C   0  0  0  0  0  0  0  0  0  0  0  0
   49.6717   50.9100   -0.3739 C   0  0  0  0  0  0  0  0  0  0  0  0
   49.2257   46.3791   -2.1167 C   0  0  0  0  0  0  0  0  0  0  0  0
   50.8169   50.4480   -1.0697 C   0  0  0  0  0  0  0  0  0  0  0  0
   46.9916   50.3413    1.4688 C   0  0  0  0  0  0  0  0  0  0  0  0
   47.1937   54.2206   -2.1074 C   0  0  0  0  0  0  0  0  0  0  0  0
   48.5793   48.3189    0.8330 C   0  0  0  0  0  0  0  0  0  0  0  0
   48.4856   50.3179   -0.5699 N   0  0  0  0  0  0  0  0  0  0  0  0
   45.7263   49.4014    2.0005 C   0  0  0  0  0  0  0  0  0  0  0  0
   48.2836   47.0002   -1.3799 C   0  0  0  0  0  0  0  0  0  0  0  0
   51.0402   52.5626    0.7704 C   0  0  0  0  0  0  0  0  0  0  0  0
   46.8323   53.6424   -0.8733 N   0  0  0  0  0  0  0  0  0  0  0  0
   50.5094   46.4904   -1.5403 N   0  0  0  0  0  0  0  0  0  0  0  0
   46.6848   54.6212    0.1692 C   0  0  0  0  0  0  0  0  0  0  0  0
   52.1301   52.0877    0.0477 C   0  0  0  0  0  0  0  0  0  0  0  0
   46.3759   51.5429    0.6484 C   0  0  0  0  0  0  0  0  0  0  0  0
   52.0449   51.0362   -0.8515 C   0  0  0  0  0  0  0  0  0  0  0  0
   46.7078   52.3328   -0.7714 C   0  0  0  0  0  0  0  0  0  0  0  0
   49.0197   47.5082   -0.2756 N   0  0  0  0  0  0  0  0  0  0  0  0
   46.9307   51.5779   -1.9335 C   0  0  0  0  0  0  0  0  0  0  0  0
   50.3515   47.1922   -0.4098 C   0  0  0  0  0  0  0  0  0  0  0  0
  1  8  1  0
  1 10  1  0
  1 11  1  0
  2 11  1  0
  2 23  2  0
  3  5  2  0
  3 14  1  0
  4 17  1  0
  5  7  1  0
  5 11  1  0
  6 13  2  0
  6 16  1  0
  7 20  2  0
  8 12  1  0
  8 19  1  0
  9 15  1  0
 10 22  1  0
 13 22  1  0
 14 18  2  0
 15 17  1  0
 15 21  1  0
 16 24  2  0
 18 20  1  0
 19 21  1  0
 21 23  1  0
 22 24  1  0
M  END
$$$$
