
     RDKit          3D

 19 21  0  0  0  0  0  0  0  0999 V2000
  -21.6322   18.2139  -25.2322 C   0  0  0  0  0  0  0  0  0  0  0  0
  -20.6052   17.2404  -27.2260 C   0  0  0  0  0  0  0  0  0  0  0  0
  -17.2257   17.0442  -25.1605 C   0  0  0  0  0  0  0  0  0  0  0  0
  -19.8931   15.5324  -31.3961 N   0  0  0  0  0  0  0  0  0  0  0  0
  -22.8493   18.3243  -25.8081 C   0  0  0  0  0  0  0  0  0  0  0  0
  -22.1842   16.9305  -29.0871 C   0  0  0  0  0  0  0  0  0  0  0  0
  -17.2706   18.6330  -26.9622 C   0  0  0  0  0  0  0  0  0  0  0  0
  -17.8999   17.4640  -26.3667 N   0  0  0  0  0  0  0  0  0  0  0  0
  -21.1129   16.3782  -29.8427 C   0  0  0  0  0  0  0  0  0  0  0  0
  -20.5524   17.6828  -25.9102 C   0  0  0  0  0  0  0  0  0  0  0  0
  -23.0399   17.8900  -27.0898 C   0  0  0  0  0  0  0  0  0  0  0  0
  -18.1606   16.5024  -27.4485 C   0  0  0  0  0  0  0  0  0  0  0  0
  -24.4042   17.9989  -27.6789 C   0  0  0  0  0  0  0  0  0  0  0  0
  -19.5119   16.6952  -28.0025 C   0  0  0  0  0  0  0  0  0  0  0  0
  -21.9181   17.3373  -27.8290 C   0  0  0  0  0  0  0  0  0  0  0  0
  -20.9951   15.8666  -31.1344 N   0  0  0  0  0  0  0  0  0  0  0  0
  -19.5117   14.9015  -32.6347 C   0  0  0  0  0  0  0  0  0  0  0  0
  -19.1373   15.7280  -30.3769 C   0  0  0  0  0  0  0  0  0  0  0  0
  -19.8328   16.2902  -29.3284 C   0  0  0  0  0  0  0  0  0  0  0  0
  1  5  4  0
  1 10  4  0
  2 10  4  0
  2 14  4  0
  2 15  4  0
  3  8  1  0
  4 16  4  0
  4 17  1  0
  4 18  4  0
  5 11  4  0
  6  9  4  0
  6 15  4  0
  7  8  1  0
  8 12  1  0
  9 16  4  0
  9 19  4  0
 11 13  1  0
 11 15  4  0
 12 14  1  0
 14 19  4  0
 18 19  1  0
M  END
$$$$
