
     RDKit          3D

 22 24  0  0  0  0  0  0  0  0999 V2000
  -23.8191   18.1857  -26.1995 C   0  0  0  0  0  0  0  0  0  0  0  0
  -21.1374   17.6797  -26.4755 C   0  0  0  0  0  0  0  0  0  0  0  0
  -21.6050   18.0363  -25.2037 C   0  0  0  0  0  0  0  0  0  0  0  0
  -21.3251   17.3836  -28.9255 C   0  0  0  0  0  0  0  0  0  0  0  0
  -18.1498   16.3446  -27.9437 C   0  0  0  0  0  0  0  0  0  0  0  0
  -21.9095   17.6739  -27.5632 C   0  0  0  0  0  0  0  0  0  0  0  0
  -22.2850   15.8417  -30.8329 P   0  0  0  0  0  0  0  0  0  0  0  0
  -17.6460   16.9145  -25.6731 C   0  0  0  0  0  0  0  0  0  0  0  0
  -18.8539   17.3809  -25.5225 N   0  0  0  0  0  0  0  0  0  0  0  0
  -17.2754   16.3624  -26.8325 N   0  0  0  0  0  0  0  0  0  0  0  0
  -23.0140   18.3185  -25.0803 C   0  0  0  0  0  0  0  0  0  0  0  0
  -20.9713   15.1485  -31.3784 O   0  0  0  0  0  0  0  0  0  0  0  0
  -19.9195   17.3906  -29.0111 C   0  0  0  0  0  0  0  0  0  0  0  0
  -19.7116   17.4078  -26.6119 C   0  0  0  0  0  0  0  0  0  0  0  0
  -19.2541   17.0430  -27.8541 C   0  0  0  0  0  0  0  0  0  0  0  0
  -23.5750   15.0111  -30.8858 O   0  0  0  0  0  0  0  0  0  0  0  0
  -23.2864   17.9054  -27.4616 C   0  0  0  0  0  0  0  0  0  0  0  0
  -21.9108   16.1167  -29.2381 O   0  0  0  0  0  0  0  0  0  0  0  0
  -19.3029   17.8278  -30.1255 N   0  0  0  0  0  0  0  0  0  0  0  0
  -25.4911   18.6186  -25.9044 Cl  0  0  0  0  0  0  0  0  0  0  0  0
  -16.7554   17.0357  -24.6455 N   0  0  0  0  0  0  0  0  0  0  0  0
  -22.4612   17.2598  -31.3974 O   0  0  0  0  0  0  0  0  0  0  0  0
  1 11  1  0
  1 17  2  0
  1 20  1  0
  2  3  1  0
  2  6  2  0
  2 14  1  0
  3 11  2  0
  4  6  1  0
  4 13  1  0
  4 18  1  0
  5 10  1  0
  5 15  1  0
  6 17  1  0
  7 12  1  0
  7 16  1  0
  7 18  1  0
  7 22  2  0
  8  9  1  0
  8 10  2  0
  8 21  1  0
  9 14  1  0
 13 15  2  0
 13 19  1  0
 14 15  1  0
M  END
$$$$
