
     RDKit          3D

 15 16  0  0  0  0  0  0  0  0999 V2000
  -19.5747   18.2745  -27.3478 C   0  0  0  0  0  0  0  0  0  0  0  0
  -17.8644   17.2366  -26.7006 C   0  0  0  0  0  0  0  0  0  0  0  0
  -18.5469   18.2814  -26.8237 N   0  0  0  0  0  0  0  0  0  0  0  0
  -20.3136   17.2564  -27.7975 C   0  0  0  0  0  0  0  0  0  0  0  0
  -18.3707   16.1733  -27.0562 C   0  0  0  0  0  0  0  0  0  0  0  0
  -25.1186   16.5400  -31.1080 Cl  0  0  0  0  0  0  0  0  0  0  0  0
  -22.7140   17.8455  -27.5063 C   0  0  0  0  0  0  0  0  0  0  0  0
  -24.4033   17.8007  -29.2544 C   0  0  0  0  0  0  0  0  0  0  0  0
  -23.3635   17.3776  -30.0800 C   0  0  0  0  0  0  0  0  0  0  0  0
  -16.6582   17.1412  -26.1311 N   0  0  0  0  0  0  0  0  0  0  0  0
  -22.4870   18.0764  -25.9088 Cl  0  0  0  0  0  0  0  0  0  0  0  0
  -21.9845   17.2981  -29.7772 C   0  0  0  0  0  0  0  0  0  0  0  0
  -23.9989   17.9704  -27.9449 C   0  0  0  0  0  0  0  0  0  0  0  0
  -19.6137   16.2012  -27.5950 C   0  0  0  0  0  0  0  0  0  0  0  0
  -21.6270   17.4552  -28.3749 C   0  0  0  0  0  0  0  0  0  0  0  0
  1  3  1  0
  1  4  2  0
  2  3  2  0
  2  5  1  0
  2 10  1  0
  4 14  1  0
  4 15  1  0
  5 14  2  0
  6  9  1  0
  7 11  1  0
  7 13  1  0
  7 15  2  0
  8  9  1  0
  8 13  2  0
  9 12  2  0
 12 15  1  0
M  END
$$$$
