
     RDKit          3D

 15 15  0  0  0  0  0  0  0  0999 V2000
  -20.2132   16.1433  -28.3449 C   0  0  0  0  0  0  0  0  0  0  0  0
  -23.0095   17.9940  -27.3090 C   0  0  0  0  0  0  0  0  0  0  0  0
  -22.7752   17.0473  -29.4293 C   0  0  0  0  0  0  0  0  0  0  0  0
  -24.4054   18.1521  -27.4682 C   0  0  0  0  0  0  0  0  0  0  0  0
  -22.1786   17.4452  -28.2716 C   0  0  0  0  0  0  0  0  0  0  0  0
  -22.3614   18.4866  -25.8139 Cl  0  0  0  0  0  0  0  0  0  0  0  0
  -20.8216   17.3600  -28.0409 O   0  0  0  0  0  0  0  0  0  0  0  0
  -17.6822   17.1739  -26.0488 C   0  0  0  0  0  0  0  0  0  0  0  0
  -18.7232   16.4141  -28.2219 C   0  0  0  0  0  0  0  0  0  0  0  0
  -18.7073   17.5705  -25.0368 C   0  0  0  0  0  0  0  0  0  0  0  0
  -25.0139   16.5847  -31.0188 Cl  0  0  0  0  0  0  0  0  0  0  0  0
  -24.1550   17.1295  -29.6324 C   0  0  0  0  0  0  0  0  0  0  0  0
  -18.1619   15.9732  -26.8974 C   0  0  0  0  0  0  0  0  0  0  0  0
  -16.7502   16.9678  -24.8804 N   0  0  0  0  0  0  0  0  0  0  0  0
  -24.9496   17.7041  -28.6400 C   0  0  0  0  0  0  0  0  0  0  0  0
  1  7  1  0
  1  9  1  0
  2  4  1  0
  2  5  2  0
  2  6  1  0
  3  5  1  0
  3 12  2  0
  4 15  2  0
  5  7  1  0
  8 10  1  0
  8 13  1  0
  8 14  1  0
  9 13  1  0
 11 12  1  0
 12 15  1  0
M  END
$$$$
