
     RDKit          3D

 19 21  0  0  0  0  0  0  0  0999 V2000
  -23.8825   18.4972  -27.1967 N   0  0  0  0  0  0  0  0  0  0  0  0
  -24.3149   17.4354  -29.1829 C   0  0  0  0  0  0  0  0  0  0  0  0
  -19.6581   15.6940  -26.8303 C   0  0  0  0  0  0  0  0  0  0  0  0
  -19.8956   17.0424  -27.0138 C   0  0  0  0  0  0  0  0  0  0  0  0
  -16.7385   18.4992  -26.4954 N   0  0  0  0  0  0  0  0  0  0  0  0
  -21.2050   17.4763  -27.2355 C   0  0  0  0  0  0  0  0  0  0  0  0
  -17.6333   17.5128  -26.5485 C   0  0  0  0  0  0  0  0  0  0  0  0
  -22.9179   18.6973  -26.3724 C   0  0  0  0  0  0  0  0  0  0  0  0
  -21.7468   18.2814  -26.3046 N   0  0  0  0  0  0  0  0  0  0  0  0
  -25.1341   16.3158  -31.4083 Cl  0  0  0  0  0  0  0  0  0  0  0  0
  -23.4300   17.7331  -28.1956 C   0  0  0  0  0  0  0  0  0  0  0  0
  -22.0054   17.1661  -28.2719 C   0  0  0  0  0  0  0  0  0  0  0  0
  -17.3267   16.1814  -26.3947 C   0  0  0  0  0  0  0  0  0  0  0  0
  -18.8862   17.9326  -26.9022 C   0  0  0  0  0  0  0  0  0  0  0  0
  -22.6803   16.0444  -30.3889 C   0  0  0  0  0  0  0  0  0  0  0  0
  -21.7031   16.3527  -29.3833 C   0  0  0  0  0  0  0  0  0  0  0  0
  -18.3815   15.3040  -26.5836 C   0  0  0  0  0  0  0  0  0  0  0  0
  -23.9662   16.6166  -30.2750 C   0  0  0  0  0  0  0  0  0  0  0  0
  -18.8558   19.3033  -26.9643 O   0  0  0  0  0  0  0  0  0  0  0  0
  1  8  4  0
  1 11  4  0
  2 11  4  0
  2 18  4  0
  3  4  4  0
  3 17  4  0
  4  6  1  0
  4 14  4  0
  5  7  1  0
  6  9  4  0
  6 12  4  0
  7 13  4  0
  7 14  4  0
  8  9  4  0
 10 18  1  0
 11 12  4  0
 12 16  4  0
 13 17  4  0
 14 19  1  0
 15 16  4  0
 15 18  4  0
M  END
$$$$
