
     RDKit          3D

 24 26  0  0  0  0  0  0  0  0999 V2000
    5.1381   -0.7890    1.9709 O   0  0  0  0  0  0  0  0  0  0  0  0
   -0.7303    1.6395    1.3007 C   0  0  0  0  0  0  0  0  0  0  0  0
   -0.2577   -1.5430    1.7652 O   0  0  0  0  0  0  0  0  0  0  0  0
    4.3635    0.9133    0.0756 O   0  0  0  0  0  0  0  0  0  0  0  0
   -0.9648   -0.5959    3.7317 O   0  0  0  0  0  0  0  0  0  0  0  0
   -2.1313    0.1683   -0.1987 C   0  0  0  0  0  0  0  0  0  0  0  0
    3.9563   -0.3337    1.1458 P   0  0  2  0  0  0  0  0  0  0  0  0
   -1.1309    1.0267    0.0325 N   0  0  0  0  0  0  0  0  0  0  0  0
   -3.1499   -1.4442   -3.3591 N   0  0  0  0  0  0  0  0  0  0  0  0
    5.3379   -0.3906   -2.0395 O   0  0  0  0  0  0  0  0  0  0  0  0
    0.2995    0.7827    2.0668 C   0  0  2  0  0  0  0  0  0  0  0  0
   -2.1440   -0.1695   -1.5081 C   0  0  0  0  0  0  0  0  0  0  0  0
    2.5646   -0.0329    2.0855 O   0  0  0  0  0  0  0  0  0  0  0  0
    3.6761   -1.3447   -0.1823 O   0  0  0  0  0  0  0  0  0  0  0  0
   -4.0036   -1.5577   -1.0894 N   0  0  0  0  0  0  0  0  0  0  0  0
    1.5967    0.5780    1.2647 C   0  0  0  0  0  0  0  0  0  0  0  0
   -0.3044   -0.5256    2.5092 C   0  0  0  0  0  0  0  0  0  0  0  0
    4.0816   -0.0978   -1.2515 P   0  0  1  0  0  0  0  0  0  0  0  0
   -3.1005   -1.0581   -1.9856 C   0  0  0  0  0  0  0  0  0  0  0  0
   -3.0263   -0.3225    0.6927 N   0  0  0  0  0  0  0  0  0  0  0  0
   -0.5544    1.1891   -1.1868 C   0  0  0  0  0  0  0  0  0  0  0  0
    2.7808    0.4034   -2.2094 O   0  0  0  0  0  0  0  0  0  0  0  0
   -3.9717   -1.1975    0.2343 C   0  0  0  0  0  0  0  0  0  0  0  0
   -1.1544    0.4610   -2.1690 N   0  0  0  0  0  0  0  0  0  0  0  0
  1  7  2  0
  2  8  1  0
 11  2  1  6
  3 17  2  0
  4  7  1  0
  4 18  1  0
  5 17  1  0
  6  8  1  0
  6 12  1  0
  6 20  2  0
  7 13  1  1
  7 14  1  0
  8 21  1  0
  9 19  1  0
 10 18  2  0
 11 16  1  0
 11 17  1  0
 12 19  2  0
 12 24  1  0
 13 16  1  0
 14 18  1  0
 15 19  1  0
 15 23  2  0
 18 22  1  6
 20 23  1  0
 21 24  2  0
M  END
