
     RDKit          3D

 33 35  0  0  0  0  0  0  0  0999 V2000
    3.8261   -1.4494   -0.4343 C   0  0  0  0  0  0  0  0  0  0  0  0
    2.6731    0.0651    1.5227 C   0  0  0  0  0  0  0  0  0  0  0  0
    0.6309   -0.2200    0.7584 N   0  0  0  0  0  0  0  0  0  0  0  0
    4.0508   -0.0947    1.5193 C   0  0  0  0  0  0  0  0  0  0  0  0
   -2.1458    0.8527   -0.5948 O   0  0  0  0  0  0  0  0  0  0  0  0
    1.9219   -0.5301    0.5681 C   0  0  0  0  0  0  0  0  0  0  0  0
   -2.6103    1.6484   -1.9907 O   0  0  0  0  0  0  0  0  0  0  0  0
   -0.6404    0.4446   -1.2428 C   0  0  2  0  0  0  0  0  0  0  0  0
    0.0529   -1.3051   -0.1971 P   0  0  2  0  0  0  0  0  0  0  0  0
    0.2163    2.0287    0.2467 O   0  0  0  0  0  0  0  0  0  0  0  0
   -0.7863   -0.2097   -2.4828 O   0  0  0  0  0  0  0  0  0  0  0  0
   -0.5173   -0.5575   -0.0881 C   0  0  2  0  0  0  0  0  0  0  0  0
    1.0939   -2.3275    0.1990 O   0  0  0  0  0  0  0  0  0  0  0  0
   -4.1510    0.1738    1.9181 O   0  0  0  0  0  0  0  0  0  0  0  0
   -1.2477   -2.1060   -0.9252 O   0  0  0  0  0  0  0  0  0  0  0  0
    1.4192    1.0445   -0.4395 P   0  0  1  0  0  0  0  0  0  0  0  0
    2.4281    0.4497    0.7852 O   0  0  0  0  0  0  0  0  0  0  0  0
    1.9012    0.7921    2.3515 N   0  0  0  0  0  0  0  0  0  0  0  0
   -2.6416    0.2948    0.0431 C   0  0  2  0  0  0  0  0  0  0  0  0
   -3.5117   -0.5249   -0.7060 O   0  0  0  0  0  0  0  0  0  0  0  0
    0.7331   -0.2319   -1.3273 O   0  0  0  0  0  0  0  0  0  0  0  0
    4.7766    0.4487    2.3926 O   0  0  0  0  0  0  0  0  0  0  0  0
   -1.7952    1.6535    1.8601 O   0  0  0  0  0  0  0  0  0  0  0  0
   -3.4297    1.0693    1.1174 C   0  0  0  0  0  0  0  0  0  0  0  0
    4.6026   -0.8593    0.5323 N   0  0  0  0  0  0  0  0  0  0  0  0
   -0.4977   -0.5096    1.2012 O   0  0  0  0  0  0  0  0  0  0  0  0
    0.6527    0.5981    1.8444 C   0  0  0  0  0  0  0  0  0  0  0  0
   -1.8624    1.2526   -0.8686 C   0  0  2  0  0  0  0  0  0  0  0  0
    2.2478    1.8899   -1.3793 O   0  0  0  0  0  0  0  0  0  0  0  0
    2.4657   -1.2808   -0.4239 N   0  0  0  0  0  0  0  0  0  0  0  0
    4.4437   -2.2356   -1.4529 N   0  0  0  0  0  0  0  0  0  0  0  0
   -1.7012   -0.5381    0.6867 O   0  0  0  0  0  0  0  0  0  0  0  0
   -1.0665    1.0116    0.7018 P   0  0  1  0  0  0  0  0  0  0  0  0
  1 25  2  0
  1 30  1  0
  1 31  1  0
  2  4  1  0
  2  6  2  0
  2 18  1  0
  3  6  1  0
 12  3  1  1
  3 27  1  0
  4 22  2  0
  4 25  1  0
 33  5  1  6
  6 30  1  0
 28  7  1  6
  8 11  1  6
  8 12  1  0
  8 28  1  0
  9 13  2  0
  9 15  1  6
  9 21  1  0
  9 26  1  0
 10 16  1  0
 10 33  1  0
 12 32  1  0
 14 24  1  0
 16 17  1  1
 16 21  1  0
 16 29  2  0
 18 27  2  0
 19 20  1  6
 19 24  1  0
 19 28  1  0
 19 32  1  0
 23 33  2  0
 26 33  1  0
M  END
