
     RDKit          3D

 27 29  0  0  0  0  0  0  0  0999 V2000
   -0.3851   -2.4687    3.1970 O   0  0  0  0  0  0  0  0  0  0  0  0
    3.5946    0.2280    0.1192 P   0  0  2  0  0  0  0  0  0  0  0  0
    4.8838    1.6800   -2.5715 O   0  0  0  0  0  0  0  0  0  0  0  0
   -2.0855    0.6483   -0.4962 C   0  0  0  0  0  0  0  0  0  0  0  0
   -0.9453    0.0799   -0.9568 N   0  0  0  0  0  0  0  0  0  0  0  0
   -4.1174    1.5313   -0.6024 N   0  0  0  0  0  0  0  0  0  0  0  0
   -2.4080    0.9334    0.7733 N   0  0  0  0  0  0  0  0  0  0  0  0
    4.3998   -1.2506    0.3134 O   0  0  0  0  0  0  0  0  0  0  0  0
    0.3588   -0.3729    2.2308 C   0  0  1  0  0  0  0  0  0  0  0  0
    2.7866    0.2844   -1.3810 O   0  0  0  0  0  0  0  0  0  0  0  0
    3.2588    0.1736   -3.9466 O   0  0  0  0  0  0  0  0  0  0  0  0
    4.5971    1.3557    0.2231 O   0  0  0  0  0  0  0  0  0  0  0  0
   -3.0991    1.0126   -1.3140 C   0  0  0  0  0  0  0  0  0  0  0  0
   -0.2806    0.7980    1.7775 O   0  0  0  0  0  0  0  0  0  0  0  0
   -2.2474   -0.7851    3.8592 O   0  0  0  0  0  0  0  0  0  0  0  0
    4.9811   -1.0825   -2.4470 O   0  0  0  0  0  0  0  0  0  0  0  0
   -1.9571   -0.7844    2.4836 C   0  0  2  0  0  0  0  0  0  0  0  0
   -0.6609   -1.5054    2.2125 C   0  0  2  0  0  0  0  0  0  0  0  0
   -4.0377    1.1771   -3.5847 N   0  0  0  0  0  0  0  0  0  0  0  0
   -0.8258   -0.1216   -2.3033 C   0  0  0  0  0  0  0  0  0  0  0  0
    1.5712   -0.6793    1.3463 C   0  0  0  0  0  0  0  0  0  0  0  0
    2.4473    0.4236    1.3657 O   0  0  0  0  0  0  0  0  0  0  0  0
    3.9625    0.2599   -2.6114 P   0  0  0  0  0  0  0  0  0  0  0  0
   -1.6668    0.6432    2.0038 C   0  0  2  0  0  0  0  0  0  0  0  0
   -3.6566    1.4595    0.6773 C   0  0  0  0  0  0  0  0  0  0  0  0
   -1.8398    0.2414   -3.1534 N   0  0  0  0  0  0  0  0  0  0  0  0
   -2.9911    0.8106   -2.6856 C   0  0  0  0  0  0  0  0  0  0  0  0
 18  1  1  1
  2  8  1  1
  2 10  1  0
  2 12  2  0
  2 22  1  0
  3 23  1  0
  4  5  2  0
  4  7  1  0
  4 13  1  0
  5 20  1  0
  6 13  1  0
  6 25  2  0
 24  7  1  6
  7 25  1  0
  9 14  1  0
  9 18  1  0
  9 21  1  6
 10 23  1  0
 11 23  2  0
 13 27  2  0
 14 24  1  0
 17 15  1  1
 16 23  1  0
 17 18  1  0
 17 24  1  0
 19 27  1  0
 20 26  2  0
 21 22  1  0
 26 27  1  0
M  END
