
     RDKit          3D

  7  7  0  0  0  0  0  0  0  0999 V2000
   -7.3708  -64.6792   17.1784 N   0  0  0  0  0  0  0  0  0  0  0  0
   -9.8055  -61.2639   17.5500 C   0  0  0  0  0  0  0  0  0  0  0  0
   -7.7094  -62.3058   17.1576 N   0  0  0  0  0  0  0  0  0  0  0  0
   -8.2231  -63.5411   17.3578 C   0  0  0  0  0  0  0  0  0  0  0  0
   -9.4961  -63.7374   17.7235 N   0  0  0  0  0  0  0  0  0  0  0  0
  -10.3548  -62.4973   17.8136 C   0  0  0  0  0  0  0  0  0  0  0  0
   -8.4596  -61.1543   17.2223 C   0  0  0  0  0  0  0  0  0  0  0  0
  1  4  1  0
  2  6  2  0
  2  7  1  0
  3  4  1  0
  3  7  1  0
  4  5  2  0
  5  6  1  0
M  END
$$$$
