
     RDKit          3D

 36 40  0  0  0  0  0  0  0  0999 V2000
  -40.2370  -12.6652   12.1378 C   0  0  0  0  0  0  0  0  0  0  0  0
  -37.9247  -12.1799    9.0010 C   0  0  0  0  0  0  0  0  0  0  0  0
  -41.4994  -11.9227   10.2065 C   0  0  0  0  0  0  0  0  0  0  0  0
  -41.0566   -6.2440    8.2510 C   0  0  0  0  0  0  0  0  0  0  0  0
  -40.6782  -11.6715   11.2850 C   0  0  0  0  0  0  0  0  0  0  0  0
  -38.8438  -11.8425    7.9741 C   0  0  0  0  0  0  0  0  0  0  0  0
  -40.6583  -13.9635   11.9370 C   0  0  0  0  0  0  0  0  0  0  0  0
  -40.9420   -7.4737    8.8540 C   0  0  0  0  0  0  0  0  0  0  0  0
  -39.7607   -7.8405    9.4040 C   0  0  0  0  0  0  0  0  0  0  0  0
  -38.8289   -5.7826    8.7269 C   0  0  0  0  0  0  0  0  0  0  0  0
  -41.1776  -10.0116    5.6987 C   0  0  0  0  0  0  0  0  0  0  0  0
  -40.2839  -10.2525   11.5671 C   0  0  0  0  0  0  0  0  0  0  0  0
  -37.0649  -11.2105    9.0877 N   0  0  0  0  0  0  0  0  0  0  0  0
  -41.4519  -14.2376   10.8405 C   0  0  0  0  0  0  0  0  0  0  0  0
  -40.3774   -2.8826    8.3653 C   0  0  0  0  0  0  0  0  0  0  0  0
  -41.8599  -13.2363   10.0262 C   0  0  0  0  0  0  0  0  0  0  0  0
  -40.2362  -11.7128    3.7379 C   0  0  0  0  0  0  0  0  0  0  0  0
  -39.9932   -5.3732    8.1835 C   0  0  0  0  0  0  0  0  0  0  0  0
  -40.2114  -10.1618   13.0118 F   0  0  0  0  0  0  0  0  0  0  0  0
  -38.8720   -9.8564    6.5121 N   0  0  0  0  0  0  0  0  0  0  0  0
  -39.5874   -2.1490    6.5676 N   0  0  0  0  0  0  0  0  0  0  0  0
  -41.8311   -9.5222    9.7604 N   0  0  0  0  0  0  0  0  0  0  0  0
  -39.4453   -3.4576    6.5470 C   0  0  0  0  0  0  0  0  0  0  0  0
  -38.4619  -10.6098    7.4769 C   0  0  0  0  0  0  0  0  0  0  0  0
  -41.9516  -10.8551    9.3132 C   0  0  0  0  0  0  0  0  0  0  0  0
  -41.5597  -11.3536    3.7320 C   0  0  0  0  0  0  0  0  0  0  0  0
  -39.4037  -11.2145    4.7072 C   0  0  0  0  0  0  0  0  0  0  0  0
  -42.0587  -10.5104    4.7212 C   0  0  0  0  0  0  0  0  0  0  0  0
  -41.4233   -9.3285   11.1308 C   0  0  0  0  0  0  0  0  0  0  0  0
  -38.7430   -7.0019    9.3102 C   0  0  0  0  0  0  0  0  0  0  0  0
  -42.0494   -8.4228    8.9468 C   0  0  0  0  0  0  0  0  0  0  0  0
  -39.9682   -3.9823    7.6790 C   0  0  0  0  0  0  0  0  0  0  0  0
  -39.0973   -1.2006    5.7063 C   0  0  0  0  0  0  0  0  0  0  0  0
  -37.4061  -10.2645    8.1957 N   0  0  0  0  0  0  0  0  0  0  0  0
  -39.8260  -10.3570    5.6707 C   0  0  0  0  0  0  0  0  0  0  0  0
  -40.1320   -1.7951    7.6892 N   0  0  0  0  0  0  0  0  0  0  0  0
  1  5  2  0
  1  7  1  0
  2  6  2  0
  2 13  1  0
  3  5  1  0
  3 16  2  0
  3 25  1  0
  4  8  2  0
  4 18  1  0
  5 12  1  0
  6 24  1  0
  7 14  2  0
  8  9  1  0
  8 31  1  0
  9 30  2  0
 10 18  2  0
 10 30  1  0
 11 28  2  0
 11 35  1  0
 12 19  1  0
 12 29  1  0
 13 34  1  0
 14 16  1  0
 15 32  1  0
 15 36  2  0
 17 26  2  0
 17 27  1  0
 18 32  1  0
 20 24  1  0
 20 35  1  0
 21 23  1  0
 21 33  1  0
 21 36  1  0
 22 25  1  0
 22 29  1  0
 22 31  1  0
 23 32  2  0
 24 34  2  0
 26 28  1  0
 27 35  2  0
M  END
$$$$
