
     RDKit          3D

 22 24  0  0  0  0  0  0  0  0999 V2000
  -40.2815   -7.7565    8.3226 N   0  0  0  0  0  0  0  0  0  0  0  0
  -39.9788   -5.8968    7.6603 C   0  0  0  0  0  0  0  0  0  0  0  0
  -40.0167   -8.8383    7.3392 C   0  0  0  0  0  0  0  0  0  0  0  0
  -40.8938  -14.3742   11.1667 Cl  0  0  0  0  0  0  0  0  0  0  0  0
  -39.3341  -10.6910   10.3221 C   0  0  0  0  0  0  0  0  0  0  0  0
  -40.2090  -11.8618   10.3191 C   0  0  0  0  0  0  0  0  0  0  0  0
  -39.8992   -8.4620    9.7297 N   0  0  0  0  0  0  0  0  0  0  0  0
  -39.7653   -3.9908    6.1578 C   0  0  0  0  0  0  0  0  0  0  0  0
  -39.1803  -11.1455   12.8817 C   0  0  0  0  0  0  0  0  0  0  0  0
  -39.8394   -3.1921    7.2264 C   0  0  0  0  0  0  0  0  0  0  0  0
  -39.7989  -12.4205   12.7210 C   0  0  0  0  0  0  0  0  0  0  0  0
  -40.1811   -5.0930    8.7653 C   0  0  0  0  0  0  0  0  0  0  0  0
  -40.2297   -7.2286    8.8240 C   0  0  0  0  0  0  0  0  0  0  0  0
  -40.3252   -7.3097    7.9756 N   0  0  0  0  0  0  0  0  0  0  0  0
  -39.3941  -10.1283   11.7842 C   0  0  0  0  0  0  0  0  0  0  0  0
  -39.9988   -3.6785    8.4963 C   0  0  0  0  0  0  0  0  0  0  0  0
  -40.2787  -12.7598   11.4887 C   0  0  0  0  0  0  0  0  0  0  0  0
  -39.5363   -9.7246    9.3952 C   0  0  0  0  0  0  0  0  0  0  0  0
  -39.6061   -9.9635    8.0209 C   0  0  0  0  0  0  0  0  0  0  0  0
  -39.9156   -5.3301    6.3258 C   0  0  0  0  0  0  0  0  0  0  0  0
  -37.6786  -11.0844    9.9065 Cl  0  0  0  0  0  0  0  0  0  0  0  0
  -39.6552   -1.4927    7.0611 Cl  0  0  0  0  0  0  0  0  0  0  0  0
  1  3  4  0
  1  7  4  0
  1 14  1  0
  2 12  4  0
  2 14  1  0
  2 20  4  0
  3 19  4  0
  4 17  1  0
  5  6  1  0
  5 15  1  0
  5 18  1  0
  5 21  1  0
  6 17  1  0
  7 13  4  0
  7 18  4  0
  8 10  4  0
  8 20  4  0
  9 11  1  0
  9 15  1  0
 10 16  4  0
 10 22  1  0
 11 17  2  0
 12 16  4  0
 18 19  4  0
M  END
$$$$
