
     RDKit          3D

 23 24  0  0  0  0  0  0  0  0999 V2000
  -38.9426  -10.0450    8.2484 C   0  0  0  0  0  0  0  0  0  0  0  0
  -40.6511  -13.0227   11.0490 C   0  0  0  0  0  0  0  0  0  0  0  0
  -39.2273   -1.0092    6.6795 C   0  0  0  0  0  0  0  0  0  0  0  0
  -38.8585   -8.6028    8.3215 N   0  0  0  0  0  0  0  0  0  0  0  0
  -40.6421   -5.6774    7.9110 N   0  0  0  0  0  0  0  0  0  0  0  0
  -39.9717   -3.2632    7.1674 C   0  0  0  0  0  0  0  0  0  0  0  0
  -38.1054  -10.8669    9.2047 C   0  0  0  0  0  0  0  0  0  0  0  0
  -38.8105  -11.0046   11.6175 C   0  0  0  0  0  0  0  0  0  0  0  0
  -39.5751  -11.5576   12.6517 C   0  0  0  0  0  0  0  0  0  0  0  0
  -39.1251   -2.7161    4.9720 C   0  0  0  0  0  0  0  0  0  0  0  0
  -39.6094   -3.6645    5.8671 C   0  0  0  0  0  0  0  0  0  0  0  0
  -40.6793   -8.2023   10.5470 O   0  0  0  0  0  0  0  0  0  0  0  0
  -39.9400   -7.8857    8.2170 C   0  0  0  0  0  0  0  0  0  0  0  0
  -40.4330  -12.6292   12.3540 C   0  0  0  0  0  0  0  0  0  0  0  0
  -40.7066   -4.2121    8.0979 C   0  0  0  0  0  0  0  0  0  0  0  0
  -39.6638   -6.4382    8.4328 C   0  0  0  0  0  0  0  0  0  0  0  0
  -39.7876   -1.8943    7.5557 C   0  0  0  0  0  0  0  0  0  0  0  0
  -38.7757   -5.9763    9.0499 O   0  0  0  0  0  0  0  0  0  0  0  0
  -41.0232   -8.2117    9.3246 C   0  0  0  0  0  0  0  0  0  0  0  0
  -38.9623  -11.4486   10.2894 C   0  0  0  0  0  0  0  0  0  0  0  0
  -42.1324   -8.4656    8.9242 O   0  0  0  0  0  0  0  0  0  0  0  0
  -39.8782  -12.4842    9.9904 C   0  0  0  0  0  0  0  0  0  0  0  0
  -38.9314   -1.4219    5.4031 C   0  0  0  0  0  0  0  0  0  0  0  0
  1  4  1  0
  1  7  1  0
  2 14  2  0
  2 22  1  0
  3 17  1  0
  3 23  2  0
  4 13  1  0
  5 15  1  0
  5 16  1  0
  6 11  1  0
  6 15  1  0
  6 17  2  0
  7 20  1  0
  8  9  2  0
  8 20  1  0
  9 14  1  0
 10 11  2  0
 10 23  1  0
 12 19  1  0
 13 16  1  0
 13 19  1  0
 16 18  2  0
 19 21  2  0
 20 22  2  0
M  END
$$$$
