
     RDKit          3D

 20 21  0  0  0  0  0  0  0  0999 V2000
  -38.8542  -10.0960    8.0861 C   0  0  0  0  0  0  0  0  0  0  0  0
  -39.9370   -4.7434    7.7770 C   0  0  0  0  0  0  0  0  0  0  0  0
  -39.5578   -9.4334    9.2361 C   0  0  0  0  0  0  0  0  0  0  0  0
  -38.6015  -11.5218   10.2380 S   0  0  0  0  0  0  0  0  0  0  0  0
  -40.4223   -6.9513    7.1253 C   0  0  0  0  0  0  0  0  0  0  0  0
  -41.0056  -11.3667   10.0670 C   0  0  0  0  0  0  0  0  0  0  0  0
  -39.9955   -5.1389    9.0970 C   0  0  0  0  0  0  0  0  0  0  0  0
  -38.7681   -1.8771    6.2875 C   0  0  0  0  0  0  0  0  0  0  0  0
  -40.8432   -8.7858    8.8406 C   0  0  0  0  0  0  0  0  0  0  0  0
  -39.8797  -10.4782   10.3297 C   0  0  0  0  0  0  0  0  0  0  0  0
  -39.6039   -3.0785    6.4656 N   0  0  0  0  0  0  0  0  0  0  0  0
  -37.9942  -11.1419    8.6335 C   0  0  0  0  0  0  0  0  0  0  0  0
  -40.4756   -7.3618    8.4700 C   0  0  0  0  0  0  0  0  0  0  0  0
  -39.2473  -10.3094   12.5572 O   0  0  0  0  0  0  0  0  0  0  0  0
  -40.1498   -5.6681    6.7974 C   0  0  0  0  0  0  0  0  0  0  0  0
  -40.9557  -12.7566   10.5982 C   0  0  0  0  0  0  0  0  0  0  0  0
  -40.2607   -6.4251    9.3928 C   0  0  0  0  0  0  0  0  0  0  0  0
  -39.6599   -3.4128    7.4579 N   0  0  0  0  0  0  0  0  0  0  0  0
  -40.0301   -9.8742   11.6627 C   0  0  0  0  0  0  0  0  0  0  0  0
  -40.9282   -9.0897   11.8336 O   0  0  0  0  0  0  0  0  0  0  0  0
  1  3  1  0
  1 12  1  0
  2  7  2  0
  2 15  1  0
  2 18  1  0
  3  9  1  0
  3 10  1  0
  4 10  1  0
  4 12  1  0
  5 13  1  0
  5 15  2  0
  6 10  1  0
  6 16  1  0
  7 17  1  0
  8 11  1  0
  9 13  1  0
 10 19  1  0
 11 18  1  0
 13 17  2  0
 14 19  1  0
 19 20  2  0
M  END
$$$$
