
     RDKit          3D

 19 19  0  0  0  0  0  0  0  0999 V2000
  -40.6627   -5.1014    6.8580 C   0  0  0  0  0  0  0  0  0  0  0  0
  -39.3783   -2.5371    6.8821 C   0  0  0  0  0  0  0  0  0  0  0  0
  -40.0107   -9.0290    9.1826 C   0  0  0  0  0  0  0  0  0  0  0  0
  -40.1162   -4.4540    7.8719 C   0  0  0  0  0  0  0  0  0  0  0  0
  -40.4498   -6.4261    7.0090 C   0  0  0  0  0  0  0  0  0  0  0  0
  -39.9332  -12.1395   13.0732 C   0  0  0  0  0  0  0  0  0  0  0  0
  -40.1780  -12.3225   11.5472 C   0  0  0  0  0  0  0  0  0  0  0  0
  -38.9960  -12.2277   10.7835 C   0  0  0  0  0  0  0  0  0  0  0  0
  -39.4694  -10.4728    9.1081 C   0  0  0  0  0  0  0  0  0  0  0  0
  -38.4045  -10.7584    8.0631 C   0  0  0  0  0  0  0  0  0  0  0  0
  -38.7271   -2.0881    6.0844 N   0  0  0  0  0  0  0  0  0  0  0  0
  -40.8786   -8.7771    9.9676 O   0  0  0  0  0  0  0  0  0  0  0  0
  -38.8819  -10.8706   10.3401 N   0  0  0  0  0  0  0  0  0  0  0  0
  -39.4140   -5.4667    9.1142 S   0  0  0  0  0  0  0  0  0  0  0  0
  -38.1364   -9.9624   11.1748 C   0  0  0  0  0  0  0  0  0  0  0  0
  -39.4472   -8.1125    8.3336 N   0  0  0  0  0  0  0  0  0  0  0  0
  -40.1131   -3.1310    7.8554 N   0  0  0  0  0  0  0  0  0  0  0  0
  -39.7883   -6.8458    8.1210 C   0  0  0  0  0  0  0  0  0  0  0  0
  -40.7475  -13.7268   11.3521 C   0  0  0  0  0  0  0  0  0  0  0  0
  1  4  2  0
  1  5  1  0
  2 11  3  0
  2 17  1  0
  3  9  1  0
  3 12  2  0
  3 16  1  0
  4 14  1  0
  4 17  1  0
  5 18  2  0
  6  7  1  0
  7  8  1  0
  7 19  1  0
  8 13  1  0
  9 10  1  0
  9 13  1  0
 13 15  1  0
 14 18  1  0
 16 18  1  0
M  END
$$$$
